{
   "completed_at" : "20200326T193812Z",
   "completed_status" : "Success",
   "current_step" : 12,
   "description" : "Hotel 1",
   "eplusout_err" : "Program Version,EnergyPlus, Version 9.1.0-fafb9d5652, YMD=2020.03.26 13:37,\n   ** Warning ** Timestep: Requested number (1) is less than the suggested minimum of 4.\n   **   ~~~   ** Please see entry for Timestep in Input/Output Reference for discussion of considerations.\n   ************* Beginning Zone Sizing Calculations\n   ** Warning ** ProcessScheduleInput: Schedule:Day:Interval=\"114 SPACE(S) OCC SCH DEFAULT\", Blank Schedule Type Limits Name input -- will not be validated.\n   ** Warning ** ProcessScheduleInput: Schedule:Day:Interval=\"114 SPACE(S) OCC SCH SATURDAY\", Blank Schedule Type Limits Name input -- will not be validated.\n   ** Warning ** ProcessScheduleInput: Schedule:Day:Interval=\"114 SPACE(S) OCC SCH SUMMER DESIGN DAY\", Blank Schedule Type Limits Name input -- will not be validated.\n   ** Warning ** ProcessScheduleInput: Schedule:Day:Interval=\"114 SPACE(S) OCC SCH SUNDAY\", Blank Schedule Type Limits Name input -- will not be validated.\n   ** Warning ** ProcessScheduleInput: Schedule:Day:Interval=\"114 SPACE(S) OCC SCH WINTER DESIGN DAY\", Blank Schedule Type Limits Name input -- will not be validated.\n   ** Warning ** ProcessScheduleInput: Schedule:Day:Interval=\"ECONOMIZER MAX OA FRACTION 70 PCT DEFAULT\", Blank Schedule Type Limits Name input -- will not be validated.\n   ** Warning ** ProcessScheduleInput: Schedule:Day:Interval=\"SCHEDULE DAY 1\", Blank Schedule Type Limits Name input -- will not be validated.\n   ** Warning ** ProcessScheduleInput: Schedule:Day:Interval=\"SCHEDULE DAY 2\", Blank Schedule Type Limits Name input -- will not be validated.\n   ** Warning ** ProcessScheduleInput: Schedule:Day:Interval=\"SCHEDULE DAY 3\", Blank Schedule Type Limits Name input -- will not be validated.\n   ** Warning ** ProcessScheduleInput: Schedule:Day:Interval=\"SCHEDULE DAY 4\", Blank Schedule Type Limits Name input -- will not be validated.\n   ** Warning ** ProcessScheduleInput: Schedule:Day:Interval=\"SCHEDULE DAY 5\", Blank Schedule Type Limits Name input -- will not be validated.\n   ** Warning ** ProcessScheduleInput: Schedule:Day:Interval=\"SCHEDULE DAY 6\", Blank Schedule Type Limits Name input -- will not be validated.\n   ** Warning ** ProcessScheduleInput: Schedule:Year=\"ECONOMIZER MAX OA FRACTION 70 PCT\", Blank Schedule Type Limits Name input -- will not be validated.\n   ** Warning ** ProcessScheduleInput: Schedule:Year=\"ELEVATOR SCHEDULE\", Blank Schedule Type Limits Name input -- will not be validated.\n   ** Warning ** ProcessScheduleInput: Schedule:Constant=\"ALWAYS OFF DISCRETE\", Blank Schedule Type Limits Name input -- will not be validated.\n   ** Warning ** ProcessScheduleInput: Schedule:Constant=\"ALWAYS ON CONTINUOUS\", Blank Schedule Type Limits Name input -- will not be validated.\n   ** Warning ** CheckUsedConstructions: There are 11 nominally unused constructions in input.\n   **   ~~~   ** For explicit details on each unused construction, use Output:Diagnostics,DisplayExtraWarnings;\n   ** Warning ** GetDaylightingControls: Fraction of Zone controlled by the Daylighting reference points is < 1.0.\n   **   ~~~   ** ..discovered in \"Daylighting:Controls\" for Zone=\"BUILDING STORY 1 THERMALZONE\", only 1.00 of the zone is controlled.\n   ** Warning ** GetDaylightingControls: Fraction of Zone controlled by the Daylighting reference points is < 1.0.\n   **   ~~~   ** ..discovered in \"Daylighting:Controls\" for Zone=\"BUILDING STORY 10 THERMALZONE\", only 0.41 of the zone is controlled.\n   ** Warning ** GetDaylightingControls: Fraction of Zone controlled by the Daylighting reference points is < 1.0.\n   **   ~~~   ** ..discovered in \"Daylighting:Controls\" for Zone=\"BUILDING STORY 2 THERMALZONE\", only 0.32 of the zone is controlled.\n   ** Warning ** GetDaylightingControls: Fraction of Zone controlled by the Daylighting reference points is < 1.0.\n   **   ~~~   ** ..discovered in \"Daylighting:Controls\" for Zone=\"BUILDING STORY 3 THERMALZONE\", only 0.41 of the zone is controlled.\n   ** Warning ** GetDaylightingControls: Fraction of Zone controlled by the Daylighting reference points is < 1.0.\n   **   ~~~   ** ..discovered in \"Daylighting:Controls\" for Zone=\"BUILDING STORY 4 THERMALZONE\", only 0.41 of the zone is controlled.\n   ** Warning ** GetDaylightingControls: Fraction of Zone controlled by the Daylighting reference points is < 1.0.\n   **   ~~~   ** ..discovered in \"Daylighting:Controls\" for Zone=\"BUILDING STORY 5 THERMALZONE\", only 0.41 of the zone is controlled.\n   ** Warning ** GetDaylightingControls: Fraction of Zone controlled by the Daylighting reference points is < 1.0.\n   **   ~~~   ** ..discovered in \"Daylighting:Controls\" for Zone=\"BUILDING STORY 6 THERMALZONE\", only 0.41 of the zone is controlled.\n   ** Warning ** GetDaylightingControls: Fraction of Zone controlled by the Daylighting reference points is < 1.0.\n   **   ~~~   ** ..discovered in \"Daylighting:Controls\" for Zone=\"BUILDING STORY 7 THERMALZONE\", only 0.41 of the zone is controlled.\n   ** Warning ** GetDaylightingControls: Fraction of Zone controlled by the Daylighting reference points is < 1.0.\n   **   ~~~   ** ..discovered in \"Daylighting:Controls\" for Zone=\"BUILDING STORY 8 THERMALZONE\", only 0.41 of the zone is controlled.\n   ** Warning ** GetDaylightingControls: Fraction of Zone controlled by the Daylighting reference points is < 1.0.\n   **   ~~~   ** ..discovered in \"Daylighting:Controls\" for Zone=\"BUILDING STORY 9 THERMALZONE\", only 0.41 of the zone is controlled.\n   ************* Beginning System Sizing Calculations\n   ** Warning ** Since Zone Minimum Air Flow Input Method = CONSTANT, input for Fixed Minimum Air Flow Rate will be ignored.\n   **   ~~~   ** Occurs in AirTerminal:SingleDuct:VAV:Reheat = BUILDING STORY 1 THERMALZONE VAV TERMINAL\n   ** Warning ** Since Zone Minimum Air Flow Input Method = CONSTANT, input for Fixed Minimum Air Flow Rate will be ignored.\n   **   ~~~   ** Occurs in AirTerminal:SingleDuct:VAV:Reheat = BUILDING STORY 2 THERMALZONE VAV TERMINAL\n   ** Warning ** Since Zone Minimum Air Flow Input Method = CONSTANT, input for Fixed Minimum Air Flow Rate will be ignored.\n   **   ~~~   ** Occurs in AirTerminal:SingleDuct:VAV:Reheat = BUILDING STORY 4 THERMALZONE VAV TERMINAL\n   ************* Beginning Plant Sizing Calculations\n   ** Warning ** The Standard Ratings is calculated for Coil:Cooling:DX:SingleSpeed = BUILDING STORY 10 THERMALZONE PTAC 1SPD DX AC CLG COIL 560KBTU/HR 9.5EER but not at the AHRI test condition due to curve out of bound.\n   **   ~~~   **  Review the Standard Ratings calculations in the Engineering Reference for this coil type. Also, use Output:Diagnostics, DisplayExtraWarnings for further guidance.\n   ** Warning ** The Standard Ratings is calculated for Coil:Cooling:DX:SingleSpeed = BUILDING STORY 3 THERMALZONE PTAC 1SPD DX AC CLG COIL 537KBTU/HR 9.5EER but not at the AHRI test condition due to curve out of bound.\n   **   ~~~   **  Review the Standard Ratings calculations in the Engineering Reference for this coil type. Also, use Output:Diagnostics, DisplayExtraWarnings for further guidance.\n   ** Warning ** The Standard Ratings is calculated for Coil:Cooling:DX:SingleSpeed = BUILDING STORY 5 THERMALZONE PTAC 1SPD DX AC CLG COIL 535KBTU/HR 9.5EER but not at the AHRI test condition due to curve out of bound.\n   **   ~~~   **  Review the Standard Ratings calculations in the Engineering Reference for this coil type. Also, use Output:Diagnostics, DisplayExtraWarnings for further guidance.\n   ** Warning ** The Standard Ratings is calculated for Coil:Cooling:DX:SingleSpeed = BUILDING STORY 6 THERMALZONE PTAC 1SPD DX AC CLG COIL 535KBTU/HR 9.5EER but not at the AHRI test condition due to curve out of bound.\n   **   ~~~   **  Review the Standard Ratings calculations in the Engineering Reference for this coil type. Also, use Output:Diagnostics, DisplayExtraWarnings for further guidance.\n   ** Warning ** The Standard Ratings is calculated for Coil:Cooling:DX:SingleSpeed = BUILDING STORY 7 THERMALZONE PTAC 1SPD DX AC CLG COIL 539KBTU/HR 9.5EER but not at the AHRI test condition due to curve out of bound.\n   **   ~~~   **  Review the Standard Ratings calculations in the Engineering Reference for this coil type. Also, use Output:Diagnostics, DisplayExtraWarnings for further guidance.\n   ** Warning ** The Standard Ratings is calculated for Coil:Cooling:DX:SingleSpeed = BUILDING STORY 8 THERMALZONE PTAC 1SPD DX AC CLG COIL 706KBTU/HR 9.5EER but not at the AHRI test condition due to curve out of bound.\n   **   ~~~   **  Review the Standard Ratings calculations in the Engineering Reference for this coil type. Also, use Output:Diagnostics, DisplayExtraWarnings for further guidance.\n   ** Warning ** The Standard Ratings is calculated for Coil:Cooling:DX:SingleSpeed = BUILDING STORY 9 THERMALZONE PTAC 1SPD DX AC CLG COIL 482KBTU/HR 9.5EER but not at the AHRI test condition due to curve out of bound.\n   **   ~~~   **  Review the Standard Ratings calculations in the Engineering Reference for this coil type. Also, use Output:Diagnostics, DisplayExtraWarnings for further guidance.\n   ** Warning ** Controller:MechanicalVentilation=\"1 ZONE PVAV VENTILATION CONTROLLER\", Zone OA/person rate\n   **   ~~~   ** For Zone=\"BUILDING STORY 1 THERMALZONE\".\n   **   ~~~   ** Zone outside air per person rate not set in Design Specification Outdoor Air Object=\"BLENDED OA\".\n   ** Warning ** Controller:MechanicalVentilation=\"1 ZONE PVAV 1 VENTILATION CONTROLLER\", Zone OA/person rate\n   **   ~~~   ** For Zone=\"BUILDING STORY 2 THERMALZONE\".\n   **   ~~~   ** Zone outside air per person rate not set in Design Specification Outdoor Air Object=\"BLENDED OA 2\".\n   ** Warning ** Controller:MechanicalVentilation=\"1 ZONE PVAV 2 VENTILATION CONTROLLER\", Zone OA/person rate\n   **   ~~~   ** For Zone=\"BUILDING STORY 4 THERMALZONE\".\n   **   ~~~   ** Zone outside air per person rate not set in Design Specification Outdoor Air Object=\"BLENDED OA 1\".\n   ** Warning ** Check input. Pump nominal power or motor efficiency is set to 0, for pump=BOOSTER WATER LOOP PUMP\n   ** Warning ** Missing temperature setpoint for LeavingSetpointModulated mode Boiler named BOILER 12502KBTU/HR 0.8 THERMAL EFF\n   **   ~~~   **   A temperature setpoint is needed at the outlet node of a boiler in variable flow mode\n   **   ~~~   **   use a Setpoint Manager to establish a setpoint at the boiler outlet node \n   **   ~~~   **   or use an EMS actuator to establish a setpoint at the boiler outlet node \n   **   ~~~   **   The overall loop setpoint will be assumed for Boiler. The simulation continues ... \n   ** Warning ** Output:Meter: invalid Key Name=\"HEATING:ADDITIONALFUEL\" - not found.\n   ** Warning ** Output:Meter: invalid Key Name=\"HEATING:DISTRICTCOOLING\" - not found.\n   ** Warning ** Output:Meter: invalid Key Name=\"HEATING:DISTRICTHEATING\" - not found.\n   ** Warning ** Output:Meter: invalid Key Name=\"HEATING:WATER\" - not found.\n   ** Warning ** Output:Meter: invalid Key Name=\"COOLING:GAS\" - not found.\n   ** Warning ** Output:Meter: invalid Key Name=\"COOLING:ADDITIONALFUEL\" - not found.\n   ** Warning ** Output:Meter: invalid Key Name=\"COOLING:DISTRICTCOOLING\" - not found.\n   ** Warning ** Output:Meter: invalid Key Name=\"COOLING:DISTRICTHEATING\" - not found.\n   ** Warning ** Output:Meter: invalid Key Name=\"COOLING:WATER\" - not found.\n   ** Warning ** Output:Meter: invalid Key Name=\"INTERIORLIGHTS:GAS\" - not found.\n   ** Warning ** Output:Meter: invalid Key Name=\"INTERIORLIGHTS:ADDITIONALFUEL\" - not found.\n   ** Warning ** Output:Meter: invalid Key Name=\"INTERIORLIGHTS:DISTRICTCOOLING\" - not found.\n   ** Warning ** Output:Meter: invalid Key Name=\"INTERIORLIGHTS:DISTRICTHEATING\" - not found.\n   ** Warning ** Output:Meter: invalid Key Name=\"INTERIORLIGHTS:WATER\" - not found.\n   ** Warning ** Output:Meter: invalid Key Name=\"EXTERIORLIGHTS:GAS\" - not found.\n   ** Warning ** Output:Meter: invalid Key Name=\"EXTERIORLIGHTS:ADDITIONALFUEL\" - not found.\n   ** Warning ** Output:Meter: invalid Key Name=\"EXTERIORLIGHTS:DISTRICTCOOLING\" - not found.\n   ** Warning ** Output:Meter: invalid Key Name=\"EXTERIORLIGHTS:DISTRICTHEATING\" - not found.\n   ** Warning ** Output:Meter: invalid Key Name=\"EXTERIORLIGHTS:WATER\" - not found.\n   ** Warning ** Output:Meter: invalid Key Name=\"INTERIOREQUIPMENT:ADDITIONALFUEL\" - not found.\n   ** Warning ** Output:Meter: invalid Key Name=\"INTERIOREQUIPMENT:DISTRICTCOOLING\" - not found.\n   ** Warning ** Output:Meter: invalid Key Name=\"INTERIOREQUIPMENT:DISTRICTHEATING\" - not found.\n   ** Warning ** Output:Meter: invalid Key Name=\"INTERIOREQUIPMENT:WATER\" - not found.\n   ** Warning ** Output:Meter: invalid Key Name=\"EXTERIOREQUIPMENT:ELECTRICITY\" - not found.\n   ** Warning ** Output:Meter: invalid Key Name=\"EXTERIOREQUIPMENT:GAS\" - not found.\n   ** Warning ** Output:Meter: invalid Key Name=\"EXTERIOREQUIPMENT:ADDITIONALFUEL\" - not found.\n   ** Warning ** Output:Meter: invalid Key Name=\"EXTERIOREQUIPMENT:DISTRICTCOOLING\" - not found.\n   ** Warning ** Output:Meter: invalid Key Name=\"EXTERIOREQUIPMENT:DISTRICTHEATING\" - not found.\n   ** Warning ** Output:Meter: invalid Key Name=\"EXTERIOREQUIPMENT:WATER\" - not found.\n   ** Warning ** Output:Meter: invalid Key Name=\"FANS:GAS\" - not found.\n   ** Warning ** Output:Meter: invalid Key Name=\"FANS:ADDITIONALFUEL\" - not found.\n   ** Warning ** Output:Meter: invalid Key Name=\"FANS:DISTRICTCOOLING\" - not found.\n   ** Warning ** Output:Meter: invalid Key Name=\"FANS:DISTRICTHEATING\" - not found.\n   ** Warning ** Output:Meter: invalid Key Name=\"FANS:WATER\" - not found.\n   ** Warning ** Output:Meter: invalid Key Name=\"PUMPS:GAS\" - not found.\n   ** Warning ** Output:Meter: invalid Key Name=\"PUMPS:ADDITIONALFUEL\" - not found.\n   ** Warning ** Output:Meter: invalid Key Name=\"PUMPS:DISTRICTCOOLING\" - not found.\n   ** Warning ** Output:Meter: invalid Key Name=\"PUMPS:DISTRICTHEATING\" - not found.\n   ** Warning ** Output:Meter: invalid Key Name=\"PUMPS:WATER\" - not found.\n   ** Warning ** Output:Meter: invalid Key Name=\"HEATREJECTION:ELECTRICITY\" - not found.\n   ** Warning ** Output:Meter: invalid Key Name=\"HEATREJECTION:GAS\" - not found.\n   ** Warning ** Output:Meter: invalid Key Name=\"HEATREJECTION:ADDITIONALFUEL\" - not found.\n   ** Warning ** Output:Meter: invalid Key Name=\"HEATREJECTION:DISTRICTCOOLING\" - not found.\n   ** Warning ** Output:Meter: invalid Key Name=\"HEATREJECTION:DISTRICTHEATING\" - not found.\n   ** Warning ** Output:Meter: invalid Key Name=\"HEATREJECTION:WATER\" - not found.\n   ** Warning ** Output:Meter: invalid Key Name=\"HUMIDIFIER:ELECTRICITY\" - not found.\n   ** Warning ** Output:Meter: invalid Key Name=\"HUMIDIFIER:GAS\" - not found.\n   ** Warning ** Output:Meter: invalid Key Name=\"HUMIDIFIER:ADDITIONALFUEL\" - not found.\n   ** Warning ** Output:Meter: invalid Key Name=\"HUMIDIFIER:DISTRICTCOOLING\" - not found.\n   ** Warning ** Output:Meter: invalid Key Name=\"HUMIDIFIER:DISTRICTHEATING\" - not found.\n   ** Warning ** Output:Meter: invalid Key Name=\"HUMIDIFIER:WATER\" - not found.\n   ** Warning ** Output:Meter: invalid Key Name=\"HEATRECOVERY:ELECTRICITY\" - not found.\n   ** Warning ** Output:Meter: invalid Key Name=\"HEATRECOVERY:GAS\" - not found.\n   ** Warning ** Output:Meter: invalid Key Name=\"HEATRECOVERY:ADDITIONALFUEL\" - not found.\n   ** Warning ** Output:Meter: invalid Key Name=\"HEATRECOVERY:DISTRICTCOOLING\" - not found.\n   ** Warning ** Output:Meter: invalid Key Name=\"HEATRECOVERY:DISTRICTHEATING\" - not found.\n   ** Warning ** Output:Meter: invalid Key Name=\"HEATRECOVERY:WATER\" - not found.\n   ** Warning ** Output:Meter: invalid Key Name=\"WATERSYSTEMS:ADDITIONALFUEL\" - not found.\n   ** Warning ** Output:Meter: invalid Key Name=\"WATERSYSTEMS:DISTRICTCOOLING\" - not found.\n   ** Warning ** Output:Meter: invalid Key Name=\"WATERSYSTEMS:DISTRICTHEATING\" - not found.\n   ** Warning ** Output:Meter: invalid Key Name=\"REFRIGERATION:ELECTRICITY\" - not found.\n   ** Warning ** Output:Meter: invalid Key Name=\"REFRIGERATION:GAS\" - not found.\n   ** Warning ** Output:Meter: invalid Key Name=\"REFRIGERATION:ADDITIONALFUEL\" - not found.\n   ** Warning ** Output:Meter: invalid Key Name=\"REFRIGERATION:DISTRICTCOOLING\" - not found.\n   ** Warning ** Output:Meter: invalid Key Name=\"REFRIGERATION:DISTRICTHEATING\" - not found.\n   ** Warning ** Output:Meter: invalid Key Name=\"REFRIGERATION:WATER\" - not found.\n   ** Warning ** Output:Meter: invalid Key Name=\"GENERATORS:ELECTRICITY\" - not found.\n   ** Warning ** Output:Meter: invalid Key Name=\"GENERATORS:GAS\" - not found.\n   ** Warning ** Output:Meter: invalid Key Name=\"GENERATORS:ADDITIONALFUEL\" - not found.\n   ** Warning ** Output:Meter: invalid Key Name=\"GENERATORS:DISTRICTCOOLING\" - not found.\n   ** Warning ** Output:Meter: invalid Key Name=\"GENERATORS:DISTRICTHEATING\" - not found.\n   ** Warning ** Output:Meter: invalid Key Name=\"GENERATORS:WATER\" - not found.\n   ** Warning ** Output:Meter: invalid Key Name=\"ADDITIONALFUEL:FACILITY\" - not found.\n   ** Warning ** Output:Meter: invalid Key Name=\"DISTRICTCOOLING:FACILITY\" - not found.\n   ** Warning ** Output:Meter: invalid Key Name=\"DISTRICTHEATING:FACILITY\" - not found.\n   ** Warning ** Output:Meter:MeterFileOnly requested for \"Electricity:Facility\" (TimeStep), already on \"Output:Meter\". Will report to both eplusout.eso and eplusout.mtr\n   ** Warning ** Output:Meter:MeterFileOnly: invalid Key Name=\"ELECTRICITYPRODUCED:FACILITY\" - not found.\n   ** Warning ** Output:Meter:MeterFileOnly requested for \"Gas:Facility\" (TimeStep), already on \"Output:Meter\". Will report to both eplusout.eso and eplusout.mtr\n   ** Warning ** Output:Meter:MeterFileOnly: invalid Key Name=\"DISTRICTCOOLING:FACILITY\" - not found.\n   ** Warning ** Output:Meter:MeterFileOnly: invalid Key Name=\"DISTRICTHEATING:FACILITY\" - not found.\n   ************* Testing Individual Branch Integrity\n   ************* All Branches passed integrity testing\n   ************* Testing Individual Supply Air Path Integrity\n   ************* All Supply Air Paths passed integrity testing\n   ************* Testing Individual Return Air Path Integrity\n   ************* All Return Air Paths passed integrity testing\n   ************* No node connection errors were found.\n   ************* Beginning Simulation\n   ** Warning ** Processing Monthly Tabular Reports: Variable names not valid for this simulation\n   **   ~~~   ** ...use Output:Diagnostics,DisplayExtraWarnings; to show more details on individual variables.\n   ** Warning ** More than 4% of time (350.4 hours) uncomfortable in one or more zones \n   **   ~~~   ** Based on ASHRAE 55-2004 graph (Section 5.2.1.1)\n   **   ~~~   ** During Environment [01/01/2019 - 12/31/2019]: RUN PERIOD 1\n   **   ~~~   ** 3569.0 hours were uncomfortable in zone: BUILDING STORY 10 THERMALZONE\n   **   ~~~   ** 2784.0 hours were uncomfortable in zone: BUILDING STORY 3 THERMALZONE\n   **   ~~~   ** 2839.0 hours were uncomfortable in zone: BUILDING STORY 5 THERMALZONE\n   **   ~~~   ** 2861.0 hours were uncomfortable in zone: BUILDING STORY 6 THERMALZONE\n   **   ~~~   ** 2887.0 hours were uncomfortable in zone: BUILDING STORY 7 THERMALZONE\n   **   ~~~   ** 3922.0 hours were uncomfortable in zone: BUILDING STORY 8 THERMALZONE\n   **   ~~~   ** 2983.0 hours were uncomfortable in zone: BUILDING STORY 9 THERMALZONE\n   ** Warning ** Plant Loop: LARGEHOTEL KITCHEN - 90.1-2013 SERVICE WATER LOOP Demand Side is storing excess heat the majority of the time.\n   ** Warning ** Plant Loop: LARGEHOTEL KITCHEN - 90.1-2013 SERVICE WATER LOOP Supply Side is storing excess heat the majority of the time.\n   ** Warning ** The resource referenced by LifeCycleCost:UsePriceEscalation= \"U.S. AVG  COMMERCIAL-ELECTRICITY\" has no energy cost. \n   **   ~~~   ** ... It is likely that the wrong resource is used. The resource should match the meter used in Utility:Tariff.\n   ** Warning ** The resource referenced by LifeCycleCost:UsePriceEscalation= \"U.S. AVG  COMMERCIAL-DISTILLATE OIL\" has no energy cost. \n   **   ~~~   ** ... It is likely that the wrong resource is used. The resource should match the meter used in Utility:Tariff.\n   ** Warning ** The resource referenced by LifeCycleCost:UsePriceEscalation= \"U.S. AVG  COMMERCIAL-RESIDUAL OIL\" has no energy cost. \n   **   ~~~   ** ... It is likely that the wrong resource is used. The resource should match the meter used in Utility:Tariff.\n   ** Warning ** The resource referenced by LifeCycleCost:UsePriceEscalation= \"U.S. AVG  COMMERCIAL-NATURAL GAS\" has no energy cost. \n   **   ~~~   ** ... It is likely that the wrong resource is used. The resource should match the meter used in Utility:Tariff.\n   ** Warning ** The resource referenced by LifeCycleCost:UsePriceEscalation= \"U.S. AVG  COMMERCIAL-COAL\" has no energy cost. \n   **   ~~~   ** ... It is likely that the wrong resource is used. The resource should match the meter used in Utility:Tariff.\n   ************* Simulation Error Summary *************\n   ** Warning ** The following Report Variables were requested but not generated -- check.rdd file\n   **   ~~~   ** Either the IDF did not contain these elements, the variable name is misspelled,\n   **   ~~~   ** or the requested variable is an advanced output which requires Output : Diagnostics, DisplayAdvancedReportVariables;\n   ************* Key=*, VarName=FANGERPMV, Frequency=TimeStep\n   ************* Key=*, VarName=FANGERPPD, Frequency=TimeStep\n   ************* Key=*, VarName=TIME NOT COMFORTABLE SUMMER CLOTHES, Frequency=TimeStep\n   ************* Key=*, VarName=TIME NOT COMFORTABLE WINTER CLOTHES, Frequency=TimeStep\n   ************* Key=*, VarName=TIME NOT COMFORTABLE SUMMER OR WINTER CLOTHES, Frequency=TimeStep\n   ************* Key=*, VarName=DISTRICT COOLING CHILLED WATER RATE, Frequency=TimeStep\n   ************* Key=*, VarName=DISTRICT COOLING MASS FLOW RATE, Frequency=TimeStep\n   ************* Key=*, VarName=DISTRICT COOLING INLET TEMPERATURE, Frequency=TimeStep\n   ************* Key=*, VarName=DISTRICT COOLING OUTLET TEMPERATURE, Frequency=TimeStep\n   ************* Key=*, VarName=DISTRICT HEATING HOT WATER RATE, Frequency=TimeStep\n   ************* Key=*, VarName=DISTRICT HEATING MASS FLOW RATE, Frequency=TimeStep\n   ************* Key=*, VarName=DISTRICT HEATING INLET TEMPERATURE, Frequency=TimeStep\n   ************* Key=*, VarName=DISTRICT HEATING OUTLET TEMPERATURE, Frequency=TimeStep\n   ************* There are 6 unused schedules in input.\n   ************* There are 7 unused week schedules in input.\n   ************* There are 21 unused day schedules in input.\n   ************* Use Output:Diagnostics,DisplayUnusedSchedules; to see them.\n   *************\n   ************* ===== Final Error Summary =====\n   ************* The following error categories occurred.  Consider correcting or noting.\n   ************* Nominally Unused Constructions\n   ************* ..The nominally unused constructions warning is provided to alert you to potential conditions that can cause\n   ************* ..extra time during simulation. Each construction is calculated by the algorithm indicated in the HeatBalanceAlgorithm\n   ************* ..object. You may remove the constructions indicated (when you use the DisplayExtraWarnings option).\n   *************\n   ************* EnergyPlus Warmup Error Summary. During Warmup: 0 Warning; 0 Severe Errors.\n   ************* EnergyPlus Sizing Error Summary. During Sizing: 30 Warning; 0 Severe Errors.\n   ************* EnergyPlus Completed Successfully-- 133 Warning; 0 Severe Errors; Elapsed Time=00hr 00min 34.20sec\n",
   "file_paths" : [
      "C:/urbanopt-example-reopt-project/run/baseline_scenario/13/generated_files",
      "C:/urbanopt-example-reopt-project/mappers/../weather/",
      "C:/Ruby22-x64/lib/ruby/gems/2.2.0/gems/openstudio-model-articulation-0.1.1/lib/files",
      "C:/Ruby22-x64/lib/ruby/gems/2.2.0/gems/openstudio-common-measures-0.1.2/lib/files",
      "C:/Ruby22-x64/lib/ruby/gems/2.2.0/bundler/gems/urbanopt-reopt-gem-b83bd6e83bc6/lib/files",
      "C:/urbanopt-example-reopt-project/weather",
      "C:/Ruby22-x64/lib/ruby/gems/2.2.0/gems/openstudio-extension-0.1.6/lib/files",
      "./files",
      "./weather",
      "../../files",
      "../../weather",
      "./"
   ],
   "hash" : "F0F049E5",
   "measure_paths" : [
      "C:/Ruby22-x64/lib/ruby/gems/2.2.0/gems/openstudio-model-articulation-0.1.1/lib/measures",
      "C:/Ruby22-x64/lib/ruby/gems/2.2.0/gems/openstudio-common-measures-0.1.2/lib/measures",
      "C:/Ruby22-x64/lib/ruby/gems/2.2.0/bundler/gems/urbanopt-reopt-gem-b83bd6e83bc6/lib/measures",
      "C:/Ruby22-x64/lib/ruby/gems/2.2.0/gems/urbanopt-geojson-0.2.0.pre1/lib/measures",
      "C:/Ruby22-x64/lib/ruby/gems/2.2.0/gems/openstudio-extension-0.1.6/lib/measures",
      "C:/Ruby22-x64/lib/ruby/gems/2.2.0/bundler/gems/urbanopt-scenario-gem-76152d90b58a/lib/measures"
   ],
   "name" : "Hotel 1",
   "run_directory" : "C:/urbanopt-example-reopt-project/run/baseline_scenario/13",
   "seed_file" : null,
   "started_at" : "20200326T193615Z",
   "steps" : [
      {
         "arguments" : {
            "begin_date" : "2019-01-01",
            "end_date" : "2019-12-31",
            "timesteps_per_hour" : 1
         },
         "measure_dir_name" : "set_run_period",
         "result" : {
            "completed_at" : "20200326T193615Z",
            "measure_class_name" : "SetRunPeriod",
            "measure_display_name" : "SetRunPeriod",
            "measure_name" : "set_run_period",
            "measure_taxonomy" : "Envelope.Form",
            "measure_type" : "ModelMeasure",
            "measure_uid" : "7a84292a-3975-4ab3-9284-6edabcbe750b",
            "measure_version_id" : "c3a54143-dcda-4280-850b-c26cd7260211",
            "measure_version_modified" : "20200229T024314Z",
            "measure_xml_checksum" : "2AF3A68E",
            "started_at" : "20200326T193615Z",
            "stderr" : "",
            "stdout" : "",
            "step_errors" : [],
            "step_files" : [],
            "step_info" : [],
            "step_result" : "Success",
            "step_values" : [
               {
                  "name" : "timesteps_per_hour",
                  "value" : 1
               },
               {
                  "name" : "begin_date",
                  "value" : "2019-01-01"
               },
               {
                  "name" : "end_date",
                  "value" : "2019-12-31"
               }
            ],
            "step_warnings" : []
         }
      },
      {
         "arguments" : {
            "__SKIP__" : false,
            "climate_zone" : "ASHRAE 169-2013-6A",
            "weather_file_name" : "USA_NY_Buffalo-Greater.Buffalo.Intl.AP.725280_TMY3.epw"
         },
         "measure_dir_name" : "ChangeBuildingLocation",
         "result" : {
            "completed_at" : "20200326T193616Z",
            "measure_class_name" : "ChangeBuildingLocation",
            "measure_display_name" : "ChangeBuildingLocation",
            "measure_name" : "change_building_location",
            "measure_taxonomy" : "Whole Building.Space Types",
            "measure_type" : "ModelMeasure",
            "measure_uid" : "d4db4971-f5ba-11e3-a3ac-0800200c9a66",
            "measure_version_id" : "ee75726e-6dad-4da9-9f64-a40f4e79bd92",
            "measure_version_modified" : "20200229T024319Z",
            "measure_xml_checksum" : "057E8D9D",
            "started_at" : "20200326T193615Z",
            "stderr" : "",
            "stdout" : "[openstudio.model.YearDescription] <1> 'UseWeatherFile' is not yet a supported option for YearDescription\n[openstudio.model.YearDescription] <1> 'UseWeatherFile' is not yet a supported option for YearDescription\n",
            "step_errors" : [],
            "step_files" : [],
            "step_final_condition" : "The final weather file is Buffalo Niagara Intl Ap and the model has 3 design day objects.",
            "step_info" : [
               "city is Buffalo Niagara Intl Ap. State is NY",
               "mean dry bulb is 8.966666666666667",
               "Adding object Buffalo Niagara Intl Ap Ann Clg .4% Condns DB=>MWB",
               "Adding object Buffalo Niagara Intl Ap Ann Clg .4% Condns WB=>MDB",
               "Adding object Buffalo Niagara Intl Ap Ann Htg 99.6% Condns DB",
               "Setting Climate Zone to 6A"
            ],
            "step_initial_condition" : "No weather file is set. The model has 0 design day objects",
            "step_result" : "Success",
            "step_values" : [
               {
                  "name" : "weather_file_name",
                  "value" : "USA_NY_Buffalo-Greater.Buffalo.Intl.AP.725280_TMY3.epw"
               },
               {
                  "name" : "climate_zone",
                  "value" : "ASHRAE 169-2013-6A"
               },
               {
                  "name" : "set_year",
                  "value" : 0
               },
               {
                  "name" : "use_upstream_args",
                  "value" : true
               },
               {
                  "name" : "epw_gsub",
                  "value" : "Do Nothing"
               },
               {
                  "name" : "reported_climate_zone",
                  "value" : "ASHRAE 169-2013-6A"
               }
            ],
            "step_warnings" : []
         }
      },
      {
         "arguments" : {
            "__SKIP__" : false,
            "bar_division_method" : "Multiple Space Types - Individual Stories Sliced",
            "bldg_type_a" : "LargeHotel",
            "bldg_type_a_num_units" : 0,
            "bldg_type_b" : "SmallOffice",
            "bldg_type_b_fract_bldg_area" : 0,
            "bldg_type_b_num_units" : 0,
            "bldg_type_c" : "SmallOffice",
            "bldg_type_c_fract_bldg_area" : 0,
            "bldg_type_c_num_units" : 0,
            "bldg_type_d" : "SmallOffice",
            "bldg_type_d_fract_bldg_area" : 0,
            "bldg_type_d_num_units" : 0,
            "building_rotation" : 0,
            "floor_height" : 10,
            "ns_to_ew_ratio" : 0,
            "num_stories_above_grade" : 10,
            "num_stories_below_grade" : 0,
            "party_wall_fraction" : 0,
            "single_floor_area" : 31616,
            "story_multiplier" : "None",
            "template" : "90.1-2013",
            "wwr" : 0
         },
         "measure_dir_name" : "create_bar_from_building_type_ratios",
         "result" : {
            "completed_at" : "20200326T193641Z",
            "measure_class_name" : "CreateBarFromBuildingTypeRatios",
            "measure_display_name" : "Create Bar From Building Type Ratios",
            "measure_name" : "create_bar_from_building_type_ratios",
            "measure_taxonomy" : "Envelope.Form",
            "measure_type" : "ModelMeasure",
            "measure_uid" : "6e3a14f8-c3c7-4e03-bc51-bef8a52e1a05",
            "measure_version_id" : "98068f42-8546-42bc-b4a5-6bfcd0e332d4",
            "measure_version_modified" : "20200229T024044Z",
            "measure_xml_checksum" : "2AF3A68E",
            "started_at" : "20200326T193623Z",
            "stderr" : "",
            "stdout" : "",
            "step_errors" : [],
            "step_files" : [],
            "step_final_condition" : "The building finished with 114 spaces.",
            "step_info" : [
               "Replacing argument named climate_zone from current measure with a value of ASHRAE 169-2013-6A from ChangeBuildingLocation.",
               "0.0 value for aspect ratio will be replaced with smart default for LargeHotel of 5.1.",
               "0.0 value for minimum perimeter multiplier will be replaced with smart default for LargeHotel of 1.0.",
               "0.0 value for window to wall ratio will be replaced with smart default for LargeHotel of 0.27.",
               "Creating Space Types for LargeHotel.",
               "Combining GuestRoom and Corridor into a group representing a double loaded corridor",
               "Making bar with length of 402 ft and width of 79 ft",
               "Intersecting and matching surfaces in model, this will create additional geometry.",
               "Created bar envelope with floor area of 316,160 ft^2. Total building area is 316,160 ft^2."
            ],
            "step_initial_condition" : "The building started with 0 spaces.",
            "step_result" : "Success",
            "step_values" : [
               {
                  "name" : "bldg_type_a",
                  "value" : "LargeHotel"
               },
               {
                  "name" : "bldg_type_a_num_units",
                  "value" : 0
               },
               {
                  "name" : "bldg_type_b",
                  "value" : "SmallOffice"
               },
               {
                  "name" : "bldg_type_b_fract_bldg_area",
                  "value" : 0
               },
               {
                  "name" : "bldg_type_b_num_units",
                  "value" : 0
               },
               {
                  "name" : "bldg_type_c",
                  "value" : "SmallOffice"
               },
               {
                  "name" : "bldg_type_c_fract_bldg_area",
                  "value" : 0
               },
               {
                  "name" : "bldg_type_c_num_units",
                  "value" : 0
               },
               {
                  "name" : "bldg_type_d",
                  "value" : "SmallOffice"
               },
               {
                  "name" : "bldg_type_d_fract_bldg_area",
                  "value" : 0
               },
               {
                  "name" : "bldg_type_d_num_units",
                  "value" : 0
               },
               {
                  "name" : "total_bldg_floor_area",
                  "value" : 10000
               },
               {
                  "name" : "single_floor_area",
                  "value" : 31616
               },
               {
                  "name" : "floor_height",
                  "value" : 10
               },
               {
                  "name" : "custom_height_bar",
                  "value" : true
               },
               {
                  "name" : "num_stories_above_grade",
                  "value" : 10
               },
               {
                  "name" : "num_stories_below_grade",
                  "value" : 0
               },
               {
                  "name" : "building_rotation",
                  "value" : 0
               },
               {
                  "name" : "template",
                  "value" : "90.1-2013"
               },
               {
                  "name" : "ns_to_ew_ratio",
                  "value" : 0
               },
               {
                  "name" : "perim_mult",
                  "value" : 0
               },
               {
                  "name" : "bar_sep_dist_mult",
                  "value" : 10
               },
               {
                  "name" : "wwr",
                  "value" : 0
               },
               {
                  "name" : "party_wall_fraction",
                  "value" : 0
               },
               {
                  "name" : "party_wall_stories_north",
                  "value" : 0
               },
               {
                  "name" : "party_wall_stories_south",
                  "value" : 0
               },
               {
                  "name" : "party_wall_stories_east",
                  "value" : 0
               },
               {
                  "name" : "party_wall_stories_west",
                  "value" : 0
               },
               {
                  "name" : "bottom_story_ground_exposed_floor",
                  "value" : true
               },
               {
                  "name" : "top_story_exterior_exposed_roof",
                  "value" : true
               },
               {
                  "name" : "story_multiplier",
                  "value" : "None"
               },
               {
                  "name" : "make_mid_story_surfaces_adiabatic",
                  "value" : false
               },
               {
                  "name" : "bar_division_method",
                  "value" : "Multiple Space Types - Individual Stories Sliced"
               },
               {
                  "name" : "double_loaded_corridor",
                  "value" : "Primary Space Type"
               },
               {
                  "name" : "space_type_sort_logic",
                  "value" : "Building Type > Size"
               },
               {
                  "name" : "use_upstream_args",
                  "value" : true
               },
               {
                  "name" : "climate_zone",
                  "value" : "Lookup From Stat File"
               },
               {
                  "name" : "wall_area_ip",
                  "units" : "ft^2",
                  "value" : 96056.819786265187
               },
               {
                  "name" : "ns_wall_area_ip",
                  "units" : "ft^2",
                  "value" : 80309.800149172544
               },
               {
                  "name" : "ew_wall_area_ip",
                  "units" : "ft^2",
                  "value" : 15747.019637092644
               },
               {
                  "name" : "floor_area_to_perim_ratio",
                  "value" : 10.032142248142545
               },
               {
                  "name" : "bar_width",
                  "units" : "ft",
                  "value" : 78.735098185463073
               }
            ],
            "step_warnings" : [
               "User-defined single floor area was used for calculation of total building floor area",
               "Cannot use custom height bar with single floor area method, will not create custom height bar."
            ]
         }
      },
      {
         "arguments" : {
            "__SKIP__" : false,
            "add_hvac" : false,
            "add_refrigeration" : false,
            "template" : "90.1-2013"
         },
         "measure_dir_name" : "create_typical_building_from_model",
         "name" : "create_typical_building_from_model 1",
         "result" : {
            "completed_at" : "20200326T193653Z",
            "measure_class_name" : "CreateTypicalBuildingFromModel",
            "measure_display_name" : "Create Typical Building from Model",
            "measure_name" : "create_typical_building_from_model",
            "measure_taxonomy" : "Whole Building.Space Types",
            "measure_type" : "ModelMeasure",
            "measure_uid" : "339a2e3a-273c-4494-bb50-bfe586a0647c",
            "measure_version_id" : "41239158-445a-414c-a6f0-2fba3a7c696c",
            "measure_version_modified" : "20200229T024052Z",
            "measure_xml_checksum" : "EE13F09F",
            "started_at" : "20200326T193641Z",
            "stderr" : "",
            "stdout" : "[utilities.geometry.joinAll] <1> Expected polygons to join together\n[utilities.geometry.joinAll] <1> Expected polygons to join together\n[utilities.geometry.joinAll] <1> Expected polygons to join together\n[utilities.geometry.joinAll] <1> Expected polygons to join together\n[utilities.geometry.joinAll] <1> Expected polygons to join together\n[utilities.geometry.joinAll] <1> Expected polygons to join together\n",
            "step_errors" : [],
            "step_files" : [],
            "step_final_condition" : "The building finished with 3097 objects.",
            "step_info" : [
               "Replacing argument named climate_zone from current measure with a value of ASHRAE 169-2013-6A from ChangeBuildingLocation.",
               "Replacing argument named template from current measure with a value of 90.1-2013 from create_bar_from_building_type_ratios.",
               "Adding loads to space type named LargeHotel Cafe - 90.1-2013",
               "Adding loads to space type named LargeHotel Laundry - 90.1-2013",
               "Adding loads to space type named LargeHotel Corridor - 90.1-2013",
               "Adding loads to space type named LargeHotel Storage - 90.1-2013",
               "Adding loads to space type named LargeHotel Retail - 90.1-2013",
               "Adding loads to space type named LargeHotel Kitchen - 90.1-2013",
               "Adding loads to space type named LargeHotel Mechanical - 90.1-2013",
               "Adding loads to space type named LargeHotel Lobby - 90.1-2013",
               "Adding loads to space type named LargeHotel Banquet - 90.1-2013",
               "Adding loads to space type named LargeHotel GuestRoom - 90.1-2013",
               "Using climate zone ASHRAE 169-2013-6A from user arguments",
               "Adding default construction set named Res 90.1-2013 - LrgHotel - ASHRAE 169-2013-6A",
               "Adding 13.0 elevators each with power of 20,370 (W), plus lights and fans.",
               "Adding Exterior Lights named Parking Areas and Drives Def (W/ft^2) with design level of 0.1 * 227,289.",
               "Adding Exterior Lights named Building Facades Def (W/ft^2) with design level of 0.15 * 9,606.",
               "Adding Exterior Lights named Main Entries Def (W/ft) with design level of 30.0 * 51.",
               "Adding Exterior Lights named Other Doors Def (W/ft) with design level of 20.0 * 29.",
               "Adding Exterior Lights named Entry Canopies Def (W/ft^2) with design level of 0.4 * 1,620.",
               "Adding 465 (cfm) of exhaust to Zone LargeHotel Kitchen A  - Story Ground",
               "Adding 1,510 (cfm) of exhaust to Zone LargeHotel Kitchen B  - Story Ground",
               "Adding 465 (cfm) of exhaust to Zone LargeHotel Kitchen C  - Story Ground",
               "Adding LargeHotel Kitchen - 90.1-2013 Service Water Loop to the building. It has 1 water use connections.",
               "Adding LargeHotel Laundry - 90.1-2013 Service Water Loop to the building. It has 1 water use connections.",
               "Adding LargeHotel Shared Service Water Loop to the building. It has 1 water use connections.",
               "Assigning LargeHotel Cafe - 90.1-2013 Thermostat to thermal zones with LargeHotel Cafe - 90.1-2013 assigned.",
               "Assigning LargeHotel Laundry - 90.1-2013 Thermostat to thermal zones with LargeHotel Laundry - 90.1-2013 assigned.",
               "Assigning LargeHotel Corridor - 90.1-2013 Thermostat to thermal zones with LargeHotel Corridor - 90.1-2013 assigned.",
               "Assigning LargeHotel Storage - 90.1-2013 Thermostat to thermal zones with LargeHotel Storage - 90.1-2013 assigned.",
               "Assigning LargeHotel Retail - 90.1-2013 Thermostat to thermal zones with LargeHotel Retail - 90.1-2013 assigned.",
               "Assigning LargeHotel Kitchen - 90.1-2013 Thermostat to thermal zones with LargeHotel Kitchen - 90.1-2013 assigned.",
               "Assigning LargeHotel Mechanical - 90.1-2013 Thermostat to thermal zones with LargeHotel Mechanical - 90.1-2013 assigned.",
               "Assigning LargeHotel Lobby - 90.1-2013 Thermostat to thermal zones with LargeHotel Lobby - 90.1-2013 assigned.",
               "Assigning LargeHotel Banquet - 90.1-2013 Thermostat to thermal zones with LargeHotel Banquet - 90.1-2013 assigned.",
               "Assigning LargeHotel GuestRoom - 90.1-2013 Thermostat to thermal zones with LargeHotel GuestRoom - 90.1-2013 assigned.",
               "Using OpenStudio Standards version 0.2.10 with template 90.1-2013.",
               "Loading OpenStudio Standards data for 90.1-2013",
               "LargeHotel Cafe had no people, one has been created.",
               "LargeHotel Cafe set occupancy to 70.0 people/1000 ft^2.",
               "LargeHotel Cafe had no lights, one has been created.",
               "LargeHotel Cafe set LPD to 0.89 W/ft^2.",
               "LargeHotel Cafe had no electric equipment, one has been created.",
               "LargeHotel Cafe set electric EPD to 0.5 W/ft^2.",
               "LargeHotel Cafe had no ventilation specification, one has been created.",
               "LargeHotel Cafe set ventilation per area to 0.18 cfm/ft^2.",
               "LargeHotel Cafe set ventilation per person to 7.5 cfm/person.",
               "LargeHotel Cafe set occupancy schedule to HotelLarge BLDG_OCC_SCH.",
               "LargeHotel Cafe set occupant activity schedule to HotelLarge ACTIVITY_SCH.",
               "LargeHotel Cafe set lighting schedule to HotelLarge BLDG_LIGHT_SCH_2013.",
               "LargeHotel Cafe set electric equipment schedule to HotelLarge BLDG_EQUIP_SCH.",
               "LargeHotel Cafe set infiltration schedule to HotelLarge INFIL_QUARTER_ON_SCH.",
               "LargeHotel Laundry had no people, one has been created.",
               "LargeHotel Laundry set occupancy to 10.0 people/1000 ft^2.",
               "LargeHotel Laundry had no lights, one has been created.",
               "LargeHotel Laundry set LPD to 0.6 W/ft^2.",
               "LargeHotel Laundry had no electric equipment, one has been created.",
               "LargeHotel Laundry set electric EPD to 5.73 W/ft^2.",
               "LargeHotel Laundry had no gas equipment, one has been created.",
               "LargeHotel Laundry set gas EPD to 170.0 Btu/hr*ft^2.",
               "LargeHotel Laundry had no ventilation specification, one has been created.",
               "LargeHotel Laundry set ventilation per area to 0.06 cfm/ft^2.",
               "LargeHotel Laundry set ventilation per person to 7.5 cfm/person.",
               "LargeHotel Laundry set occupancy schedule to HotelLarge BLDG_OCC_SCH.",
               "LargeHotel Laundry set occupant activity schedule to HotelLarge ACTIVITY_SCH.",
               "LargeHotel Laundry set lighting schedule to HotelLarge BLDG_LIGHT_SCH_2013.",
               "LargeHotel Laundry set electric equipment schedule to HotelLarge BLDG_EQUIP_SCH.",
               "LargeHotel Laundry set gas equipment schedule to HotelLarge BLDG_EQUIP_SCH.",
               "LargeHotel Laundry set infiltration schedule to HotelLarge INFIL_QUARTER_ON_SCH.",
               "LargeHotel Corridor had no lights, one has been created.",
               "LargeHotel Corridor set LPD to 0.66 W/ft^2.",
               "LargeHotel Corridor had no ventilation specification, one has been created.",
               "LargeHotel Corridor set ventilation per area to 0.06 cfm/ft^2.",
               "LargeHotel Corridor set occupancy schedule to HotelLarge BLDG_OCC_SCH.",
               "LargeHotel Corridor set occupant activity schedule to HotelLarge ACTIVITY_SCH.",
               "LargeHotel Corridor set lighting schedule to HotelLarge BLDG_LIGHT_CORRIDOR_SCH_2013.",
               "LargeHotel Corridor set electric equipment schedule to HotelLarge BLDG_EQUIP_SCH.",
               "LargeHotel Corridor set infiltration schedule to HotelLarge INFIL_QUARTER_ON_SCH.",
               "LargeHotel Storage had no lights, one has been created.",
               "LargeHotel Storage set LPD to 0.63 W/ft^2.",
               "LargeHotel Storage had no electric equipment, one has been created.",
               "LargeHotel Storage set electric EPD to 0.25 W/ft^2.",
               "LargeHotel Storage had no ventilation specification, one has been created.",
               "LargeHotel Storage set ventilation per area to 0.12 cfm/ft^2.",
               "LargeHotel Storage set occupancy schedule to HotelLarge BLDG_OCC_SCH.",
               "LargeHotel Storage set occupant activity schedule to HotelLarge ACTIVITY_SCH.",
               "LargeHotel Storage set lighting schedule to HotelLarge BLDG_LIGHT_STORAGE_SCH_2013.",
               "LargeHotel Storage set electric equipment schedule to HotelLarge BLDG_EQUIP_SCH.",
               "LargeHotel Storage set infiltration schedule to HotelLarge INFIL_QUARTER_ON_SCH.",
               "LargeHotel Retail had no people, one has been created.",
               "LargeHotel Retail set occupancy to 15.0 people/1000 ft^2.",
               "LargeHotel Retail had no lights, one has been created.",
               "LargeHotel Retail set LPD to 1.26 W/ft^2.",
               "LargeHotel Retail had no electric equipment, one has been created.",
               "LargeHotel Retail set electric EPD to 1.0 W/ft^2.",
               "LargeHotel Retail had no ventilation specification, one has been created.",
               "LargeHotel Retail set ventilation per area to 0.12 cfm/ft^2.",
               "LargeHotel Retail set ventilation per person to 7.5 cfm/person.",
               "LargeHotel Retail set occupancy schedule to HotelLarge BLDG_OCC_SCH.",
               "LargeHotel Retail set occupant activity schedule to HotelLarge ACTIVITY_SCH.",
               "LargeHotel Retail set lighting schedule to HotelLarge BLDG_LIGHT_SCH_2013.",
               "LargeHotel Retail set electric equipment schedule to HotelLarge BLDG_EQUIP_SCH.",
               "LargeHotel Retail set infiltration schedule to HotelLarge INFIL_QUARTER_ON_SCH.",
               "LargeHotel Kitchen had no people, one has been created.",
               "LargeHotel Kitchen set occupancy to 20.0 people/1000 ft^2.",
               "LargeHotel Kitchen had no lights, one has been created.",
               "LargeHotel Kitchen set LPD to 1.21 W/ft^2.",
               "LargeHotel Kitchen had no electric equipment, one has been created.",
               "LargeHotel Kitchen set electric EPD to 47.2 W/ft^2.",
               "LargeHotel Kitchen had no gas equipment, one has been created.",
               "LargeHotel Kitchen set gas EPD to 767.0 Btu/hr*ft^2.",
               "LargeHotel Kitchen had no ventilation specification, one has been created.",
               "LargeHotel Kitchen set ventilation per area to 0.18 cfm/ft^2.",
               "LargeHotel Kitchen set ventilation per person to 7.5 cfm/person.",
               "LargeHotel Kitchen set occupancy schedule to HotelLarge BLDG_OCC_SCH.",
               "LargeHotel Kitchen set occupant activity schedule to HotelLarge ACTIVITY_SCH.",
               "LargeHotel Kitchen set lighting schedule to HotelLarge BLDG_LIGHT_SCH_2013.",
               "LargeHotel Kitchen set electric equipment schedule to HotelLarge Kitchen_Elec_Equip_SCH.",
               "LargeHotel Kitchen set gas equipment schedule to HotelLarge Kitchen_Gas_Equip_SCH.",
               "LargeHotel Kitchen set infiltration schedule to HotelLarge INFIL_QUARTER_ON_SCH.",
               "LargeHotel Mechanical had no lights, one has been created.",
               "LargeHotel Mechanical set LPD to 0.95 W/ft^2.",
               "LargeHotel Mechanical had no electric equipment, one has been created.",
               "LargeHotel Mechanical set electric EPD to 0.5 W/ft^2.",
               "LargeHotel Mechanical had no ventilation specification, one has been created.",
               "LargeHotel Mechanical set ventilation per area to 0.12 cfm/ft^2.",
               "LargeHotel Mechanical set occupancy schedule to HotelLarge BLDG_OCC_SCH.",
               "LargeHotel Mechanical set occupant activity schedule to HotelLarge ACTIVITY_SCH.",
               "LargeHotel Mechanical set lighting schedule to HotelLarge BLDG_LIGHT_MECHANIC_SCH_2013.",
               "LargeHotel Mechanical set electric equipment schedule to HotelLarge BLDG_EQUIP_SCH.",
               "LargeHotel Mechanical set infiltration schedule to HotelLarge INFIL_QUARTER_ON_SCH.",
               "LargeHotel Lobby had no people, one has been created.",
               "LargeHotel Lobby set occupancy to 30.0 people/1000 ft^2.",
               "LargeHotel Lobby had no lights, one has been created.",
               "LargeHotel Lobby set LPD to 1.06 W/ft^2.",
               "LargeHotel Lobby had no electric equipment, one has been created.",
               "LargeHotel Lobby set electric EPD to 0.75 W/ft^2.",
               "LargeHotel Lobby had no ventilation specification, one has been created.",
               "LargeHotel Lobby set ventilation per area to 0.06 cfm/ft^2.",
               "LargeHotel Lobby set ventilation per person to 7.5 cfm/person.",
               "LargeHotel Lobby set occupancy schedule to HotelLarge BLDG_OCC_SCH.",
               "LargeHotel Lobby set occupant activity schedule to HotelLarge ACTIVITY_SCH.",
               "LargeHotel Lobby set lighting schedule to HotelLarge BLDG_LIGHT_SCH_2013.",
               "LargeHotel Lobby set electric equipment schedule to HotelLarge BLDG_EQUIP_SCH.",
               "LargeHotel Lobby set infiltration schedule to HotelLarge INFIL_QUARTER_ON_SCH.",
               "LargeHotel Banquet had no people, one has been created.",
               "LargeHotel Banquet set occupancy to 70.0 people/1000 ft^2.",
               "LargeHotel Banquet had no lights, one has been created.",
               "LargeHotel Banquet set LPD to 0.89 W/ft^2.",
               "LargeHotel Banquet had no electric equipment, one has been created.",
               "LargeHotel Banquet set electric EPD to 6.301 W/ft^2.",
               "LargeHotel Banquet had no ventilation specification, one has been created.",
               "LargeHotel Banquet set ventilation per area to 0.06 cfm/ft^2.",
               "LargeHotel Banquet set ventilation per person to 5.0 cfm/person.",
               "LargeHotel Banquet set occupancy schedule to HotelLarge BLDG_OCC_SCH.",
               "LargeHotel Banquet set occupant activity schedule to HotelLarge ACTIVITY_SCH.",
               "LargeHotel Banquet set lighting schedule to HotelLarge BLDG_LIGHT_SCH_2013.",
               "LargeHotel Banquet set electric equipment schedule to HotelLarge Kitchen_Elec_Equip_SCH.",
               "LargeHotel Banquet set infiltration schedule to HotelLarge INFIL_QUARTER_ON_SCH.",
               "LargeHotel GuestRoom had no people, one has been created.",
               "LargeHotel GuestRoom set occupancy to 3.57 people/1000 ft^2.",
               "LargeHotel GuestRoom had no lights, one has been created.",
               "LargeHotel GuestRoom set LPD to 0.91 W/ft^2.",
               "LargeHotel GuestRoom had no electric equipment, one has been created.",
               "LargeHotel GuestRoom set electric EPD to 0.627 W/ft^2.",
               "LargeHotel GuestRoom had no ventilation specification, one has been created.",
               "LargeHotel GuestRoom set ventilation per area to 0.06 cfm/ft^2.",
               "LargeHotel GuestRoom set ventilation per person to 5.0 cfm/person.",
               "LargeHotel GuestRoom set occupancy schedule to HotelLarge GuestRoom_Occ_Sch.",
               "LargeHotel GuestRoom set occupant activity schedule to HotelLarge ACTIVITY_SCH.",
               "LargeHotel GuestRoom set lighting schedule to HotelLarge BLDG_LIGHT_GUESTROOM_SCH_2013.",
               "LargeHotel GuestRoom set electric equipment schedule to HotelLarge GuestRoom_Eqp_Sch_Adva.",
               "LargeHotel GuestRoom set infiltration schedule to HotelLarge INFIL_QUARTER_ON_SCH.",
               "Adding construction set: 90.1-2013-ASHRAE 169-2013-6A-LargeHotel--is_residentialYes",
               "Adding construction Typical Insulated Exterior Mass Floor R-19.61.",
               "Adding construction Typical Insulated Exterior Mass Wall R-12.5.",
               "Adding construction Typical IEAD Roof R-31.25.",
               "Adding construction LargeHotel Interior Floor.",
               "Adding construction LargeHotel Interior Wall.",
               "Adding construction LargeHotel Interior Ceiling.",
               "Adding construction Typical Insulated Carpeted 8in Slab Floor.",
               "Adding construction Typical Insulated Basement Mass Wall.",
               "Adding construction U 0.48 SHGC 0.40 Dbl Ref-D Clr 6mm/13mm.",
               "Adding construction Typical Insulated Metal Door R-2.0.",
               "Adding construction U 0.44 SHGC 0.26 Dbl Ref-B-H Clr 6mm/13mm Air.",
               "Adding construction Typical Overhead Door R-2.0.",
               "Adding construction Window_U_0.50_SHGC_0.40_Skylight_Frame_Width_0.430_in.",
               "Adding construction Typical Interior Window.",
               "Adding construction Typical Interior Door.",
               "Adding construction Typical Interior Partition.",
               "For LargeHotel Banquet A  - Story Ground, set infiltration rate to 0.112 cfm/ft2 exterior wall area (aka 1.0 cfm/ft2 @75Pa).",
               "For LargeHotel Banquet A  - Story Mid, set infiltration rate to 0.112 cfm/ft2 exterior wall area (aka 1.0 cfm/ft2 @75Pa).",
               "For LargeHotel Banquet A end_a - Story Mid, set infiltration rate to 0.112 cfm/ft2 exterior wall area (aka 1.0 cfm/ft2 @75Pa).",
               "For LargeHotel Banquet B  - Story Ground, no exterior wall area was found, no infiltration will be added.",
               "For LargeHotel Banquet B  - Story Mid, no exterior wall area was found, no infiltration will be added.",
               "For LargeHotel Banquet B end_a - Story Mid, set infiltration rate to 0.112 cfm/ft2 exterior wall area (aka 1.0 cfm/ft2 @75Pa).",
               "For LargeHotel Banquet C  - Story Ground, set infiltration rate to 0.112 cfm/ft2 exterior wall area (aka 1.0 cfm/ft2 @75Pa).",
               "For LargeHotel Banquet C  - Story Mid, set infiltration rate to 0.112 cfm/ft2 exterior wall area (aka 1.0 cfm/ft2 @75Pa).",
               "For LargeHotel Banquet C end_a - Story Mid, set infiltration rate to 0.112 cfm/ft2 exterior wall area (aka 1.0 cfm/ft2 @75Pa).",
               "For LargeHotel Cafe A  - Story Ground, set infiltration rate to 0.112 cfm/ft2 exterior wall area (aka 1.0 cfm/ft2 @75Pa).",
               "For LargeHotel Cafe A end_a - Story Ground, set infiltration rate to 0.112 cfm/ft2 exterior wall area (aka 1.0 cfm/ft2 @75Pa).",
               "For LargeHotel Cafe B  - Story Ground, no exterior wall area was found, no infiltration will be added.",
               "For LargeHotel Cafe B end_a - Story Ground, set infiltration rate to 0.112 cfm/ft2 exterior wall area (aka 1.0 cfm/ft2 @75Pa).",
               "For LargeHotel Cafe C  - Story Ground, set infiltration rate to 0.112 cfm/ft2 exterior wall area (aka 1.0 cfm/ft2 @75Pa).",
               "For LargeHotel Cafe C end_a - Story Ground, set infiltration rate to 0.112 cfm/ft2 exterior wall area (aka 1.0 cfm/ft2 @75Pa).",
               "For LargeHotel Corridor B  - Story Mid2, no exterior wall area was found, no infiltration will be added.",
               "For LargeHotel Corridor B  - Story Mid3, no exterior wall area was found, no infiltration will be added.",
               "For LargeHotel Corridor B  - Story Mid4, no exterior wall area was found, no infiltration will be added.",
               "For LargeHotel Corridor B  - Story Mid5, no exterior wall area was found, no infiltration will be added.",
               "For LargeHotel Corridor B  - Story Mid6, no exterior wall area was found, no infiltration will be added.",
               "For LargeHotel Corridor B  - Story Mid7, no exterior wall area was found, no infiltration will be added.",
               "For LargeHotel Corridor B  - Story Mid8, no exterior wall area was found, no infiltration will be added.",
               "For LargeHotel Corridor B  - Story Top, no exterior wall area was found, no infiltration will be added.",
               "For LargeHotel Corridor B end_a - Story Mid3, set infiltration rate to 0.112 cfm/ft2 exterior wall area (aka 1.0 cfm/ft2 @75Pa).",
               "For LargeHotel Corridor B end_a - Story Mid4, set infiltration rate to 0.112 cfm/ft2 exterior wall area (aka 1.0 cfm/ft2 @75Pa).",
               "For LargeHotel Corridor B end_a - Story Mid5, set infiltration rate to 0.112 cfm/ft2 exterior wall area (aka 1.0 cfm/ft2 @75Pa).",
               "For LargeHotel Corridor B end_a - Story Mid6, set infiltration rate to 0.112 cfm/ft2 exterior wall area (aka 1.0 cfm/ft2 @75Pa).",
               "For LargeHotel Corridor B end_a - Story Mid7, set infiltration rate to 0.112 cfm/ft2 exterior wall area (aka 1.0 cfm/ft2 @75Pa).",
               "For LargeHotel Corridor B end_a - Story Mid8, set infiltration rate to 0.112 cfm/ft2 exterior wall area (aka 1.0 cfm/ft2 @75Pa).",
               "For LargeHotel Corridor B end_a - Story Top, set infiltration rate to 0.112 cfm/ft2 exterior wall area (aka 1.0 cfm/ft2 @75Pa).",
               "For LargeHotel Corridor B end_b - Story Mid2, set infiltration rate to 0.112 cfm/ft2 exterior wall area (aka 1.0 cfm/ft2 @75Pa).",
               "For LargeHotel Corridor B end_b - Story Mid3, set infiltration rate to 0.112 cfm/ft2 exterior wall area (aka 1.0 cfm/ft2 @75Pa).",
               "For LargeHotel Corridor B end_b - Story Mid4, set infiltration rate to 0.112 cfm/ft2 exterior wall area (aka 1.0 cfm/ft2 @75Pa).",
               "For LargeHotel Corridor B end_b - Story Mid5, set infiltration rate to 0.112 cfm/ft2 exterior wall area (aka 1.0 cfm/ft2 @75Pa).",
               "For LargeHotel Corridor B end_b - Story Mid6, set infiltration rate to 0.112 cfm/ft2 exterior wall area (aka 1.0 cfm/ft2 @75Pa).",
               "For LargeHotel Corridor B end_b - Story Mid7, set infiltration rate to 0.112 cfm/ft2 exterior wall area (aka 1.0 cfm/ft2 @75Pa).",
               "For LargeHotel Corridor B end_b - Story Mid8, set infiltration rate to 0.112 cfm/ft2 exterior wall area (aka 1.0 cfm/ft2 @75Pa).",
               "For LargeHotel Corridor B end_b - Story Top, set infiltration rate to 0.112 cfm/ft2 exterior wall area (aka 1.0 cfm/ft2 @75Pa).",
               "For LargeHotel GuestRoom A  - Story Mid2, set infiltration rate to 0.112 cfm/ft2 exterior wall area (aka 1.0 cfm/ft2 @75Pa).",
               "For LargeHotel GuestRoom A  - Story Mid3, set infiltration rate to 0.112 cfm/ft2 exterior wall area (aka 1.0 cfm/ft2 @75Pa).",
               "For LargeHotel GuestRoom A  - Story Mid4, set infiltration rate to 0.112 cfm/ft2 exterior wall area (aka 1.0 cfm/ft2 @75Pa).",
               "For LargeHotel GuestRoom A  - Story Mid5, set infiltration rate to 0.112 cfm/ft2 exterior wall area (aka 1.0 cfm/ft2 @75Pa).",
               "For LargeHotel GuestRoom A  - Story Mid6, set infiltration rate to 0.112 cfm/ft2 exterior wall area (aka 1.0 cfm/ft2 @75Pa).",
               "For LargeHotel GuestRoom A  - Story Mid7, set infiltration rate to 0.112 cfm/ft2 exterior wall area (aka 1.0 cfm/ft2 @75Pa).",
               "For LargeHotel GuestRoom A  - Story Mid8, set infiltration rate to 0.112 cfm/ft2 exterior wall area (aka 1.0 cfm/ft2 @75Pa).",
               "For LargeHotel GuestRoom A  - Story Top, set infiltration rate to 0.112 cfm/ft2 exterior wall area (aka 1.0 cfm/ft2 @75Pa).",
               "For LargeHotel GuestRoom A end_a - Story Mid3, set infiltration rate to 0.112 cfm/ft2 exterior wall area (aka 1.0 cfm/ft2 @75Pa).",
               "For LargeHotel GuestRoom A end_a - Story Mid4, set infiltration rate to 0.112 cfm/ft2 exterior wall area (aka 1.0 cfm/ft2 @75Pa).",
               "For LargeHotel GuestRoom A end_a - Story Mid5, set infiltration rate to 0.112 cfm/ft2 exterior wall area (aka 1.0 cfm/ft2 @75Pa).",
               "For LargeHotel GuestRoom A end_a - Story Mid6, set infiltration rate to 0.112 cfm/ft2 exterior wall area (aka 1.0 cfm/ft2 @75Pa).",
               "For LargeHotel GuestRoom A end_a - Story Mid7, set infiltration rate to 0.112 cfm/ft2 exterior wall area (aka 1.0 cfm/ft2 @75Pa).",
               "For LargeHotel GuestRoom A end_a - Story Mid8, set infiltration rate to 0.112 cfm/ft2 exterior wall area (aka 1.0 cfm/ft2 @75Pa).",
               "For LargeHotel GuestRoom A end_a - Story Top, set infiltration rate to 0.112 cfm/ft2 exterior wall area (aka 1.0 cfm/ft2 @75Pa).",
               "For LargeHotel GuestRoom A end_b - Story Mid2, set infiltration rate to 0.112 cfm/ft2 exterior wall area (aka 1.0 cfm/ft2 @75Pa).",
               "For LargeHotel GuestRoom A end_b - Story Mid3, set infiltration rate to 0.112 cfm/ft2 exterior wall area (aka 1.0 cfm/ft2 @75Pa).",
               "For LargeHotel GuestRoom A end_b - Story Mid4, set infiltration rate to 0.112 cfm/ft2 exterior wall area (aka 1.0 cfm/ft2 @75Pa).",
               "For LargeHotel GuestRoom A end_b - Story Mid5, set infiltration rate to 0.112 cfm/ft2 exterior wall area (aka 1.0 cfm/ft2 @75Pa).",
               "For LargeHotel GuestRoom A end_b - Story Mid6, set infiltration rate to 0.112 cfm/ft2 exterior wall area (aka 1.0 cfm/ft2 @75Pa).",
               "For LargeHotel GuestRoom A end_b - Story Mid7, set infiltration rate to 0.112 cfm/ft2 exterior wall area (aka 1.0 cfm/ft2 @75Pa).",
               "For LargeHotel GuestRoom A end_b - Story Mid8, set infiltration rate to 0.112 cfm/ft2 exterior wall area (aka 1.0 cfm/ft2 @75Pa).",
               "For LargeHotel GuestRoom A end_b - Story Top, set infiltration rate to 0.112 cfm/ft2 exterior wall area (aka 1.0 cfm/ft2 @75Pa).",
               "For LargeHotel GuestRoom C  - Story Mid2, set infiltration rate to 0.112 cfm/ft2 exterior wall area (aka 1.0 cfm/ft2 @75Pa).",
               "For LargeHotel GuestRoom C  - Story Mid3, set infiltration rate to 0.112 cfm/ft2 exterior wall area (aka 1.0 cfm/ft2 @75Pa).",
               "For LargeHotel GuestRoom C  - Story Mid4, set infiltration rate to 0.112 cfm/ft2 exterior wall area (aka 1.0 cfm/ft2 @75Pa).",
               "For LargeHotel GuestRoom C  - Story Mid5, set infiltration rate to 0.112 cfm/ft2 exterior wall area (aka 1.0 cfm/ft2 @75Pa).",
               "For LargeHotel GuestRoom C  - Story Mid6, set infiltration rate to 0.112 cfm/ft2 exterior wall area (aka 1.0 cfm/ft2 @75Pa).",
               "For LargeHotel GuestRoom C  - Story Mid7, set infiltration rate to 0.112 cfm/ft2 exterior wall area (aka 1.0 cfm/ft2 @75Pa).",
               "For LargeHotel GuestRoom C  - Story Mid8, set infiltration rate to 0.112 cfm/ft2 exterior wall area (aka 1.0 cfm/ft2 @75Pa).",
               "For LargeHotel GuestRoom C  - Story Top, set infiltration rate to 0.112 cfm/ft2 exterior wall area (aka 1.0 cfm/ft2 @75Pa).",
               "For LargeHotel GuestRoom C end_a - Story Mid3, set infiltration rate to 0.112 cfm/ft2 exterior wall area (aka 1.0 cfm/ft2 @75Pa).",
               "For LargeHotel GuestRoom C end_a - Story Mid4, set infiltration rate to 0.112 cfm/ft2 exterior wall area (aka 1.0 cfm/ft2 @75Pa).",
               "For LargeHotel GuestRoom C end_a - Story Mid5, set infiltration rate to 0.112 cfm/ft2 exterior wall area (aka 1.0 cfm/ft2 @75Pa).",
               "For LargeHotel GuestRoom C end_a - Story Mid6, set infiltration rate to 0.112 cfm/ft2 exterior wall area (aka 1.0 cfm/ft2 @75Pa).",
               "For LargeHotel GuestRoom C end_a - Story Mid7, set infiltration rate to 0.112 cfm/ft2 exterior wall area (aka 1.0 cfm/ft2 @75Pa).",
               "For LargeHotel GuestRoom C end_a - Story Mid8, set infiltration rate to 0.112 cfm/ft2 exterior wall area (aka 1.0 cfm/ft2 @75Pa).",
               "For LargeHotel GuestRoom C end_a - Story Top, set infiltration rate to 0.112 cfm/ft2 exterior wall area (aka 1.0 cfm/ft2 @75Pa).",
               "For LargeHotel GuestRoom C end_b - Story Mid2, set infiltration rate to 0.112 cfm/ft2 exterior wall area (aka 1.0 cfm/ft2 @75Pa).",
               "For LargeHotel GuestRoom C end_b - Story Mid3, set infiltration rate to 0.112 cfm/ft2 exterior wall area (aka 1.0 cfm/ft2 @75Pa).",
               "For LargeHotel GuestRoom C end_b - Story Mid4, set infiltration rate to 0.112 cfm/ft2 exterior wall area (aka 1.0 cfm/ft2 @75Pa).",
               "For LargeHotel GuestRoom C end_b - Story Mid5, set infiltration rate to 0.112 cfm/ft2 exterior wall area (aka 1.0 cfm/ft2 @75Pa).",
               "For LargeHotel GuestRoom C end_b - Story Mid6, set infiltration rate to 0.112 cfm/ft2 exterior wall area (aka 1.0 cfm/ft2 @75Pa).",
               "For LargeHotel GuestRoom C end_b - Story Mid7, set infiltration rate to 0.112 cfm/ft2 exterior wall area (aka 1.0 cfm/ft2 @75Pa).",
               "For LargeHotel GuestRoom C end_b - Story Mid8, set infiltration rate to 0.112 cfm/ft2 exterior wall area (aka 1.0 cfm/ft2 @75Pa).",
               "For LargeHotel GuestRoom C end_b - Story Top, set infiltration rate to 0.112 cfm/ft2 exterior wall area (aka 1.0 cfm/ft2 @75Pa).",
               "For LargeHotel Kitchen A  - Story Ground, set infiltration rate to 0.112 cfm/ft2 exterior wall area (aka 1.0 cfm/ft2 @75Pa).",
               "For LargeHotel Kitchen B  - Story Ground, no exterior wall area was found, no infiltration will be added.",
               "For LargeHotel Kitchen C  - Story Ground, set infiltration rate to 0.112 cfm/ft2 exterior wall area (aka 1.0 cfm/ft2 @75Pa).",
               "For LargeHotel Laundry A  - Story Ground, set infiltration rate to 0.112 cfm/ft2 exterior wall area (aka 1.0 cfm/ft2 @75Pa).",
               "For LargeHotel Laundry B  - Story Ground, no exterior wall area was found, no infiltration will be added.",
               "For LargeHotel Laundry C  - Story Ground, set infiltration rate to 0.112 cfm/ft2 exterior wall area (aka 1.0 cfm/ft2 @75Pa).",
               "For LargeHotel Lobby A  - Story Mid, set infiltration rate to 0.112 cfm/ft2 exterior wall area (aka 1.0 cfm/ft2 @75Pa).",
               "For LargeHotel Lobby A  - Story Mid2, set infiltration rate to 0.112 cfm/ft2 exterior wall area (aka 1.0 cfm/ft2 @75Pa).",
               "For LargeHotel Lobby A end_a - Story Mid2, set infiltration rate to 0.112 cfm/ft2 exterior wall area (aka 1.0 cfm/ft2 @75Pa).",
               "For LargeHotel Lobby A end_b - Story Mid, set infiltration rate to 0.112 cfm/ft2 exterior wall area (aka 1.0 cfm/ft2 @75Pa).",
               "For LargeHotel Lobby B  - Story Mid, no exterior wall area was found, no infiltration will be added.",
               "For LargeHotel Lobby B  - Story Mid2, no exterior wall area was found, no infiltration will be added.",
               "For LargeHotel Lobby B end_a - Story Mid2, set infiltration rate to 0.112 cfm/ft2 exterior wall area (aka 1.0 cfm/ft2 @75Pa).",
               "For LargeHotel Lobby B end_b - Story Mid, set infiltration rate to 0.112 cfm/ft2 exterior wall area (aka 1.0 cfm/ft2 @75Pa).",
               "For LargeHotel Lobby C  - Story Mid, set infiltration rate to 0.112 cfm/ft2 exterior wall area (aka 1.0 cfm/ft2 @75Pa).",
               "For LargeHotel Lobby C  - Story Mid2, set infiltration rate to 0.112 cfm/ft2 exterior wall area (aka 1.0 cfm/ft2 @75Pa).",
               "For LargeHotel Lobby C end_a - Story Mid2, set infiltration rate to 0.112 cfm/ft2 exterior wall area (aka 1.0 cfm/ft2 @75Pa).",
               "For LargeHotel Lobby C end_b - Story Mid, set infiltration rate to 0.112 cfm/ft2 exterior wall area (aka 1.0 cfm/ft2 @75Pa).",
               "For LargeHotel Mechanical A  - Story Ground, set infiltration rate to 0.112 cfm/ft2 exterior wall area (aka 1.0 cfm/ft2 @75Pa).",
               "For LargeHotel Mechanical A end_b - Story Ground, set infiltration rate to 0.112 cfm/ft2 exterior wall area (aka 1.0 cfm/ft2 @75Pa).",
               "For LargeHotel Mechanical B  - Story Ground, no exterior wall area was found, no infiltration will be added.",
               "For LargeHotel Mechanical B end_b - Story Ground, set infiltration rate to 0.112 cfm/ft2 exterior wall area (aka 1.0 cfm/ft2 @75Pa).",
               "For LargeHotel Mechanical C  - Story Ground, set infiltration rate to 0.112 cfm/ft2 exterior wall area (aka 1.0 cfm/ft2 @75Pa).",
               "For LargeHotel Mechanical C end_b - Story Ground, set infiltration rate to 0.112 cfm/ft2 exterior wall area (aka 1.0 cfm/ft2 @75Pa).",
               "For LargeHotel Retail A  - Story Ground, set infiltration rate to 0.112 cfm/ft2 exterior wall area (aka 1.0 cfm/ft2 @75Pa).",
               "For LargeHotel Retail B  - Story Ground, no exterior wall area was found, no infiltration will be added.",
               "For LargeHotel Retail C  - Story Ground, set infiltration rate to 0.112 cfm/ft2 exterior wall area (aka 1.0 cfm/ft2 @75Pa).",
               "For LargeHotel Storage A  - Story Ground, set infiltration rate to 0.112 cfm/ft2 exterior wall area (aka 1.0 cfm/ft2 @75Pa).",
               "For LargeHotel Storage B  - Story Ground, no exterior wall area was found, no infiltration will be added.",
               "For LargeHotel Storage C  - Story Ground, set infiltration rate to 0.112 cfm/ft2 exterior wall area (aka 1.0 cfm/ft2 @75Pa).",
               "The building has 6 or more effective stories; assuming Traction elevators.",
               "For LargeHotel Banquet - 90.1-2013, floor area = 22402 ft^2.",
               "For LargeHotel Banquet - 90.1-2013, number of spaces = 9.",
               "For LargeHotel Banquet - 90.1-2013, number of people = 1568.",
               "For LargeHotel Cafe - 90.1-2013, floor area = 6357 ft^2.",
               "For LargeHotel Cafe - 90.1-2013, number of spaces = 6.",
               "For LargeHotel Cafe - 90.1-2013, number of people = 445.",
               "For LargeHotel Corridor - 90.1-2013, floor area = 66479 ft^2.",
               "For LargeHotel Corridor - 90.1-2013, number of spaces = 23.",
               "For LargeHotel GuestRoom - 90.1-2013, floor area = 156969 ft^2.",
               "For LargeHotel GuestRoom - 90.1-2013, number of spaces = 46.",
               "For LargeHotel GuestRoom - 90.1-2013, number of units = 561.2064975485955.",
               "For LargeHotel GuestRoom - 90.1-2013, number of people = 560.",
               "For LargeHotel Kitchen - 90.1-2013, floor area = 3485 ft^2.",
               "For LargeHotel Kitchen - 90.1-2013, number of spaces = 3.",
               "For LargeHotel Kitchen - 90.1-2013, number of people = 70.",
               "For LargeHotel Laundry - 90.1-2013, floor area = 2642 ft^2.",
               "For LargeHotel Laundry - 90.1-2013, number of spaces = 3.",
               "For LargeHotel Laundry - 90.1-2013, number of people = 26.",
               "For LargeHotel Lobby - 90.1-2013, floor area = 44154 ft^2.",
               "For LargeHotel Lobby - 90.1-2013, number of spaces = 12.",
               "For LargeHotel Lobby - 90.1-2013, number of people = 1325.",
               "For LargeHotel Mechanical - 90.1-2013, floor area = 5553 ft^2.",
               "For LargeHotel Mechanical - 90.1-2013, number of spaces = 6.",
               "For LargeHotel Retail - 90.1-2013, floor area = 4902 ft^2.",
               "For LargeHotel Retail - 90.1-2013, number of spaces = 3.",
               "For LargeHotel Retail - 90.1-2013, number of people = 74.",
               "For LargeHotel Storage - 90.1-2013, floor area = 3217 ft^2.",
               "For LargeHotel Storage - 90.1-2013, number of spaces = 3.",
               "For LargeHotel Banquet - 90.1-2013, adding 0.0 passenger elevators at 1 per 75.0 units.",
               "For LargeHotel Banquet - 90.1-2013, adding 0.0 freight/service elevators at 1 per 150.0 units.",
               "For LargeHotel Cafe - 90.1-2013, adding 0.0 passenger elevators at 1 per 75.0 units.",
               "For LargeHotel Cafe - 90.1-2013, adding 0.0 freight/service elevators at 1 per 150.0 units.",
               "For LargeHotel Corridor - 90.1-2013, adding 0.0 passenger elevators at 1 per 75.0 units.",
               "For LargeHotel Corridor - 90.1-2013, adding 0.0 freight/service elevators at 1 per 150.0 units.",
               "For LargeHotel GuestRoom - 90.1-2013, adding 7.5 passenger elevators at 1 per 75.0 units.",
               "For LargeHotel GuestRoom - 90.1-2013, adding 3.7 freight/service elevators at 1 per 150.0 units.",
               "For LargeHotel Kitchen - 90.1-2013, adding 0.0 passenger elevators at 1 per 75.0 units.",
               "For LargeHotel Kitchen - 90.1-2013, adding 0.0 freight/service elevators at 1 per 150.0 units.",
               "For LargeHotel Laundry - 90.1-2013, adding 0.0 passenger elevators at 1 per 75.0 units.",
               "For LargeHotel Laundry - 90.1-2013, adding 0.0 freight/service elevators at 1 per 150.0 units.",
               "For LargeHotel Lobby - 90.1-2013, adding 0.0 passenger elevators at 1 per 75.0 units.",
               "For LargeHotel Lobby - 90.1-2013, adding 0.0 freight/service elevators at 1 per 150.0 units.",
               "For LargeHotel Mechanical - 90.1-2013, adding 0.0 passenger elevators at 1 per 75.0 units.",
               "For LargeHotel Mechanical - 90.1-2013, adding 0.0 freight/service elevators at 1 per 150.0 units.",
               "For LargeHotel Retail - 90.1-2013, adding 0.0 passenger elevators at 1 per 75.0 units.",
               "For LargeHotel Retail - 90.1-2013, adding 0.0 freight/service elevators at 1 per 150.0 units.",
               "For LargeHotel Storage - 90.1-2013, adding 0.0 passenger elevators at 1 per 75.0 units.",
               "For LargeHotel Storage - 90.1-2013, adding 0.0 freight/service elevators at 1 per 150.0 units.",
               "Adding 1.0 additional passenger elevators.",
               "Adding 13.0 Traction elevators to the model in LargeHotel Banquet B  - Story Ground.",
               "For LargeHotel Banquet - 90.1-2013, floor area = 22402 ft^2.",
               "For LargeHotel Banquet - 90.1-2013, number of spaces = 9.",
               "For LargeHotel Banquet - 90.1-2013, number of people = 1568.",
               "For LargeHotel Cafe - 90.1-2013, floor area = 6357 ft^2.",
               "For LargeHotel Cafe - 90.1-2013, number of spaces = 6.",
               "For LargeHotel Cafe - 90.1-2013, number of people = 445.",
               "For LargeHotel Corridor - 90.1-2013, floor area = 66479 ft^2.",
               "For LargeHotel Corridor - 90.1-2013, number of spaces = 23.",
               "For LargeHotel GuestRoom - 90.1-2013, floor area = 156969 ft^2.",
               "For LargeHotel GuestRoom - 90.1-2013, number of spaces = 46.",
               "For LargeHotel GuestRoom - 90.1-2013, number of units = 561.2064975485955.",
               "For LargeHotel GuestRoom - 90.1-2013, number of people = 560.",
               "For LargeHotel Kitchen - 90.1-2013, floor area = 3485 ft^2.",
               "For LargeHotel Kitchen - 90.1-2013, number of spaces = 3.",
               "For LargeHotel Kitchen - 90.1-2013, number of people = 70.",
               "For LargeHotel Laundry - 90.1-2013, floor area = 2642 ft^2.",
               "For LargeHotel Laundry - 90.1-2013, number of spaces = 3.",
               "For LargeHotel Laundry - 90.1-2013, number of people = 26.",
               "For LargeHotel Lobby - 90.1-2013, floor area = 44154 ft^2.",
               "For LargeHotel Lobby - 90.1-2013, number of spaces = 12.",
               "For LargeHotel Lobby - 90.1-2013, number of people = 1325.",
               "For LargeHotel Mechanical - 90.1-2013, floor area = 5553 ft^2.",
               "For LargeHotel Mechanical - 90.1-2013, number of spaces = 6.",
               "For LargeHotel Retail - 90.1-2013, floor area = 4902 ft^2.",
               "For LargeHotel Retail - 90.1-2013, number of spaces = 3.",
               "For LargeHotel Retail - 90.1-2013, number of people = 74.",
               "For LargeHotel Storage - 90.1-2013, floor area = 3217 ft^2.",
               "For LargeHotel Storage - 90.1-2013, number of spaces = 3.",
               "Facade and Landscape exterior lights shut off from {:hr=>24, :min=>0} to {:hr=>6, :min=>0}",
[...]
               },
               {
                  "name" : "reporting_frequency",
                  "value" : "Timestep"
               }
            ],
            "step_warnings" : []
         }
      },
      {
         "arguments" : {
            "__SKIP__" : true,
            "r_value" : 10
         },
         "measure_dir_name" : "IncreaseInsulationRValueForExteriorWalls",
         "result" : {
            "completed_at" : "20200326T193715Z",
            "measure_class_name" : "IncreaseInsulationRValueForExteriorWalls",
            "measure_display_name" : "Increase R-value of Insulation for Exterior Walls to a Specific Value",
            "measure_name" : "increase_insulation_r_value_for_exterior_walls",
            "measure_taxonomy" : "Envelope.Opaque",
            "measure_type" : "ModelMeasure",
            "measure_uid" : "3fdf9c39-d305-449b-a4b5-077166af5a67",
            "measure_version_id" : "b55a41da-39d3-45b1-a9d0-605b292667fe",
            "measure_version_modified" : "20200229T024316Z",
            "measure_xml_checksum" : "0F858D9E",
            "started_at" : "20200326T193715Z",
            "stderr" : "",
            "stdout" : "",
            "step_errors" : [],
            "step_files" : [],
            "step_info" : [],
            "step_result" : "Skip",
            "step_values" : [],
            "step_warnings" : []
         }
      },
      {
         "arguments" : {
            "__SKIP__" : true,
            "elecequip_power_reduction_percent" : 20
         },
         "measure_dir_name" : "ReduceElectricEquipmentLoadsByPercentage",
         "result" : {
            "completed_at" : "20200326T193715Z",
            "measure_class_name" : "ReduceElectricEquipmentLoadsByPercentage",
            "measure_display_name" : "Reduce Electric Equipment Loads by Percentage",
            "measure_name" : "reduce_electric_equipment_loads_by_percentage",
            "measure_taxonomy" : "Equipment.Electric Equipment",
            "measure_type" : "ModelMeasure",
            "measure_uid" : "0902e302-70db-4339-99b0-17f08bc93629",
            "measure_version_id" : "3edc28aa-ab1d-4495-affa-d8e5873431b1",
            "measure_version_modified" : "20200229T024319Z",
            "measure_xml_checksum" : "F9A5B8F0",
            "started_at" : "20200326T193715Z",
            "stderr" : "",
            "stdout" : "",
            "step_errors" : [],
            "step_files" : [],
            "step_info" : [],
            "step_result" : "Skip",
            "step_values" : [],
            "step_warnings" : []
         }
      },
      {
         "arguments" : {
            "__SKIP__" : true,
            "lighting_power_reduction_percent" : 30
         },
         "measure_dir_name" : "ReduceLightingLoadsByPercentage",
         "result" : {
            "completed_at" : "20200326T193715Z",
            "measure_class_name" : "ReduceLightingLoadsByPercentage",
            "measure_display_name" : "Reduce Lighting Loads by Percentage",
            "measure_name" : "reduce_lighting_loads_by_percentage",
            "measure_taxonomy" : "Electric Lighting.Lighting Equipment",
            "measure_type" : "ModelMeasure",
            "measure_uid" : "791f3404-a28b-4a80-ba3f-e15b339e39ea",
            "measure_version_id" : "01e31b73-acc4-47cd-b6cb-8c54238964fc",
            "measure_version_modified" : "20200229T024320Z",
            "measure_xml_checksum" : "293730A7",
            "started_at" : "20200326T193715Z",
            "stderr" : "",
            "stdout" : "",
            "step_errors" : [],
            "step_files" : [],
            "step_info" : [],
            "step_result" : "Skip",
            "step_values" : [],
            "step_warnings" : []
         }
      },
      {
         "arguments" : {
            "feature_id" : "13",
            "feature_name" : "Hotel 1",
            "feature_type" : "Building"
         },
         "measure_dir_name" : "default_feature_reports",
         "result" : {
            "completed_at" : "20200326T193808Z",
            "measure_class_name" : "DefaultFeatureReports",
            "measure_display_name" : "DefaultFeatureReports",
            "measure_name" : "default_feature_reports",
            "measure_taxonomy" : "Reporting.QAQC",
            "measure_type" : "ReportingMeasure",
            "measure_uid" : "9ee3135a-8070-4408-bfa1-b75fecf9dd4f",
            "measure_version_id" : "607df4a0-d1ff-4c14-8d2f-93cde078dc47",
            "measure_version_modified" : "20200308T020104Z",
            "measure_xml_checksum" : "FB304155",
            "started_at" : "20200326T193752Z",
            "stderr" : "",
            "stdout" : "",
            "step_errors" : [],
            "step_files" : [
               "C:/urbanopt-example-reopt-project/run/baseline_scenario/13/011_default_feature_reports/default_feature_reports.csv",
               "C:/urbanopt-example-reopt-project/run/baseline_scenario/13/011_default_feature_reports/default_feature_reports.json"
            ],
            "step_final_condition" : "Default Feature Reports generated successfully.",
            "step_info" : [
               "All timeseries: [\"Electricity:Facility\", \"ElectricityProduced:Facility\", \"Gas:Facility\", \"DistrictCooling:Facility\", \"DistrictHeating:Facility\", \"District Cooling Chilled Water Rate\", \"District Cooling Mass Flow Rate\", \"District Cooling Inlet Temperature\", \"District Cooling Outlet Temperature\", \"District Heating Hot Water Rate\", \"District Heating Mass Flow Rate\", \"District Heating Inlet Temperature\", \"District Heating Outlet Temperature\", \"Zone Thermal Comfort Fanger Model PMV\", \"Zone Thermal Comfort Fanger Model PPD\", \"Net Electric Energy\", \"Electricity:Facility Power\", \"ElectricityProduced:Facility Power\", \"Electricity:Facility Apparent Power\", \"ElectricityProduced:Facility Apparent Power\", \"Net Power\", \"Net Apparent Power\"]",
               "TIMESERIES: Electricity:Facility",
               "KEY VALUES: [\"\"]",
               "!! TIMESERIES NAME: Electricity:Facility AND key_value: ",
               "First timeseries",
               "TIMESERIES: ElectricityProduced:Facility",
               "KEY VALUES: []",
               "!! TIMESERIES NAME: ElectricityProduced:Facility AND key_value: ",
               "Is NOT Initialized",
               "TIMESERIES: Gas:Facility",
               "KEY VALUES: [\"\"]",
               "!! TIMESERIES NAME: Gas:Facility AND key_value: ",
               "Is Initialized",
               "TIMESERIES: DistrictCooling:Facility",
               "KEY VALUES: []",
               "!! TIMESERIES NAME: DistrictCooling:Facility AND key_value: ",
               "Is NOT Initialized",
               "TIMESERIES: DistrictHeating:Facility",
               "KEY VALUES: []",
               "!! TIMESERIES NAME: DistrictHeating:Facility AND key_value: ",
               "Is NOT Initialized",
               "TIMESERIES: District Cooling Chilled Water Rate",
               "KEY VALUES: []",
               "!! TIMESERIES NAME: District Cooling Chilled Water Rate AND key_value: ",
               "Is NOT Initialized",
               "TIMESERIES: District Cooling Mass Flow Rate",
               "KEY VALUES: []",
               "!! TIMESERIES NAME: District Cooling Mass Flow Rate AND key_value: ",
               "Is NOT Initialized",
               "TIMESERIES: District Cooling Inlet Temperature",
               "KEY VALUES: []",
               "!! TIMESERIES NAME: District Cooling Inlet Temperature AND key_value: ",
               "Is NOT Initialized",
               "TIMESERIES: District Cooling Outlet Temperature",
               "KEY VALUES: []",
               "!! TIMESERIES NAME: District Cooling Outlet Temperature AND key_value: ",
               "Is NOT Initialized",
               "TIMESERIES: District Heating Hot Water Rate",
               "KEY VALUES: []",
               "!! TIMESERIES NAME: District Heating Hot Water Rate AND key_value: ",
               "Is NOT Initialized",
               "TIMESERIES: District Heating Mass Flow Rate",
               "KEY VALUES: []",
               "!! TIMESERIES NAME: District Heating Mass Flow Rate AND key_value: ",
               "Is NOT Initialized",
               "TIMESERIES: District Heating Inlet Temperature",
               "KEY VALUES: []",
               "!! TIMESERIES NAME: District Heating Inlet Temperature AND key_value: ",
               "Is NOT Initialized",
               "TIMESERIES: District Heating Outlet Temperature",
               "KEY VALUES: []",
               "!! TIMESERIES NAME: District Heating Outlet Temperature AND key_value: ",
               "Is NOT Initialized",
               "TIMESERIES: Zone Thermal Comfort Fanger Model PMV",
               "KEY VALUES: [\"BUILDING STORY 1 THERMALZONE LARGEHOTEL BANQUET PEOPLE 1\", \"BUILDING STORY 1 THERMALZONE LARGEHOTEL CAFE PEOPLE 1\", \"BUILDING STORY 1 THERMALZONE LARGEHOTEL KITCHEN PEOPLE 1\", \"BUILDING STORY 1 THERMALZONE LARGEHOTEL LAUNDRY PEOPLE 1\", \"BUILDING STORY 1 THERMALZONE LARGEHOTEL RETAIL PEOPLE 1\", \"BUILDING STORY 10 THERMALZONE LARGEHOTEL GUESTROOM PEOPLE 8\", \"BUILDING STORY 2 THERMALZONE LARGEHOTEL GUESTROOM PEOPLE 1\", \"BUILDING STORY 2 THERMALZONE LARGEHOTEL LOBBY PEOPLE 2\", \"BUILDING STORY 3 THERMALZONE LARGEHOTEL GUESTROOM PEOPLE 3\", \"BUILDING STORY 4 THERMALZONE LARGEHOTEL BANQUET PEOPLE 2\", \"BUILDING STORY 4 THERMALZONE LARGEHOTEL LOBBY PEOPLE 1\", \"BUILDING STORY 5 THERMALZONE LARGEHOTEL GUESTROOM PEOPLE 4\", \"BUILDING STORY 6 THERMALZONE LARGEHOTEL GUESTROOM PEOPLE 2\", \"BUILDING STORY 7 THERMALZONE LARGEHOTEL GUESTROOM PEOPLE 5\", \"BUILDING STORY 8 THERMALZONE LARGEHOTEL GUESTROOM PEOPLE 6\", \"BUILDING STORY 9 THERMALZONE LARGEHOTEL GUESTROOM PEOPLE 7\"]",
               "!! TIMESERIES NAME: Zone Thermal Comfort Fanger Model PMV AND key_value: BUILDING STORY 1 THERMALZONE LARGEHOTEL BANQUET PEOPLE 1",
               "Is Initialized",
               "SETTING UP NEW ARRAY FOR: Zone Thermal Comfort Fanger Model PMV",
               "!! TIMESERIES NAME: Zone Thermal Comfort Fanger Model PMV AND key_value: BUILDING STORY 1 THERMALZONE LARGEHOTEL CAFE PEOPLE 1",
               "Is Initialized",
               "!! TIMESERIES NAME: Zone Thermal Comfort Fanger Model PMV AND key_value: BUILDING STORY 1 THERMALZONE LARGEHOTEL KITCHEN PEOPLE 1",
               "Is Initialized",
               "!! TIMESERIES NAME: Zone Thermal Comfort Fanger Model PMV AND key_value: BUILDING STORY 1 THERMALZONE LARGEHOTEL LAUNDRY PEOPLE 1",
               "Is Initialized",
               "!! TIMESERIES NAME: Zone Thermal Comfort Fanger Model PMV AND key_value: BUILDING STORY 1 THERMALZONE LARGEHOTEL RETAIL PEOPLE 1",
               "Is Initialized",
               "!! TIMESERIES NAME: Zone Thermal Comfort Fanger Model PMV AND key_value: BUILDING STORY 10 THERMALZONE LARGEHOTEL GUESTROOM PEOPLE 8",
               "Is Initialized",
               "!! TIMESERIES NAME: Zone Thermal Comfort Fanger Model PMV AND key_value: BUILDING STORY 2 THERMALZONE LARGEHOTEL GUESTROOM PEOPLE 1",
               "Is Initialized",
               "!! TIMESERIES NAME: Zone Thermal Comfort Fanger Model PMV AND key_value: BUILDING STORY 2 THERMALZONE LARGEHOTEL LOBBY PEOPLE 2",
               "Is Initialized",
               "!! TIMESERIES NAME: Zone Thermal Comfort Fanger Model PMV AND key_value: BUILDING STORY 3 THERMALZONE LARGEHOTEL GUESTROOM PEOPLE 3",
               "Is Initialized",
               "!! TIMESERIES NAME: Zone Thermal Comfort Fanger Model PMV AND key_value: BUILDING STORY 4 THERMALZONE LARGEHOTEL BANQUET PEOPLE 2",
               "Is Initialized",
               "!! TIMESERIES NAME: Zone Thermal Comfort Fanger Model PMV AND key_value: BUILDING STORY 4 THERMALZONE LARGEHOTEL LOBBY PEOPLE 1",
               "Is Initialized",
               "!! TIMESERIES NAME: Zone Thermal Comfort Fanger Model PMV AND key_value: BUILDING STORY 5 THERMALZONE LARGEHOTEL GUESTROOM PEOPLE 4",
               "Is Initialized",
               "!! TIMESERIES NAME: Zone Thermal Comfort Fanger Model PMV AND key_value: BUILDING STORY 6 THERMALZONE LARGEHOTEL GUESTROOM PEOPLE 2",
               "Is Initialized",
               "!! TIMESERIES NAME: Zone Thermal Comfort Fanger Model PMV AND key_value: BUILDING STORY 7 THERMALZONE LARGEHOTEL GUESTROOM PEOPLE 5",
               "Is Initialized",
               "!! TIMESERIES NAME: Zone Thermal Comfort Fanger Model PMV AND key_value: BUILDING STORY 8 THERMALZONE LARGEHOTEL GUESTROOM PEOPLE 6",
               "Is Initialized",
               "!! TIMESERIES NAME: Zone Thermal Comfort Fanger Model PMV AND key_value: BUILDING STORY 9 THERMALZONE LARGEHOTEL GUESTROOM PEOPLE 7",
               "Is Initialized",
               "timeseries Zone Thermal Comfort Fanger Model PMV: hours out of bounds: 3332.0",
               "TIMESERIES: Zone Thermal Comfort Fanger Model PPD",
               "KEY VALUES: [\"BUILDING STORY 1 THERMALZONE LARGEHOTEL BANQUET PEOPLE 1\", \"BUILDING STORY 1 THERMALZONE LARGEHOTEL CAFE PEOPLE 1\", \"BUILDING STORY 1 THERMALZONE LARGEHOTEL KITCHEN PEOPLE 1\", \"BUILDING STORY 1 THERMALZONE LARGEHOTEL LAUNDRY PEOPLE 1\", \"BUILDING STORY 1 THERMALZONE LARGEHOTEL RETAIL PEOPLE 1\", \"BUILDING STORY 10 THERMALZONE LARGEHOTEL GUESTROOM PEOPLE 8\", \"BUILDING STORY 2 THERMALZONE LARGEHOTEL GUESTROOM PEOPLE 1\", \"BUILDING STORY 2 THERMALZONE LARGEHOTEL LOBBY PEOPLE 2\", \"BUILDING STORY 3 THERMALZONE LARGEHOTEL GUESTROOM PEOPLE 3\", \"BUILDING STORY 4 THERMALZONE LARGEHOTEL BANQUET PEOPLE 2\", \"BUILDING STORY 4 THERMALZONE LARGEHOTEL LOBBY PEOPLE 1\", \"BUILDING STORY 5 THERMALZONE LARGEHOTEL GUESTROOM PEOPLE 4\", \"BUILDING STORY 6 THERMALZONE LARGEHOTEL GUESTROOM PEOPLE 2\", \"BUILDING STORY 7 THERMALZONE LARGEHOTEL GUESTROOM PEOPLE 5\", \"BUILDING STORY 8 THERMALZONE LARGEHOTEL GUESTROOM PEOPLE 6\", \"BUILDING STORY 9 THERMALZONE LARGEHOTEL GUESTROOM PEOPLE 7\"]",
               "!! TIMESERIES NAME: Zone Thermal Comfort Fanger Model PPD AND key_value: BUILDING STORY 1 THERMALZONE LARGEHOTEL BANQUET PEOPLE 1",
               "Is Initialized",
               "SETTING UP NEW ARRAY FOR: Zone Thermal Comfort Fanger Model PPD",
               "!! TIMESERIES NAME: Zone Thermal Comfort Fanger Model PPD AND key_value: BUILDING STORY 1 THERMALZONE LARGEHOTEL CAFE PEOPLE 1",
               "Is Initialized",
               "!! TIMESERIES NAME: Zone Thermal Comfort Fanger Model PPD AND key_value: BUILDING STORY 1 THERMALZONE LARGEHOTEL KITCHEN PEOPLE 1",
               "Is Initialized",
               "!! TIMESERIES NAME: Zone Thermal Comfort Fanger Model PPD AND key_value: BUILDING STORY 1 THERMALZONE LARGEHOTEL LAUNDRY PEOPLE 1",
               "Is Initialized",
               "!! TIMESERIES NAME: Zone Thermal Comfort Fanger Model PPD AND key_value: BUILDING STORY 1 THERMALZONE LARGEHOTEL RETAIL PEOPLE 1",
               "Is Initialized",
               "!! TIMESERIES NAME: Zone Thermal Comfort Fanger Model PPD AND key_value: BUILDING STORY 10 THERMALZONE LARGEHOTEL GUESTROOM PEOPLE 8",
               "Is Initialized",
               "!! TIMESERIES NAME: Zone Thermal Comfort Fanger Model PPD AND key_value: BUILDING STORY 2 THERMALZONE LARGEHOTEL GUESTROOM PEOPLE 1",
               "Is Initialized",
               "!! TIMESERIES NAME: Zone Thermal Comfort Fanger Model PPD AND key_value: BUILDING STORY 2 THERMALZONE LARGEHOTEL LOBBY PEOPLE 2",
               "Is Initialized",
               "!! TIMESERIES NAME: Zone Thermal Comfort Fanger Model PPD AND key_value: BUILDING STORY 3 THERMALZONE LARGEHOTEL GUESTROOM PEOPLE 3",
               "Is Initialized",
               "!! TIMESERIES NAME: Zone Thermal Comfort Fanger Model PPD AND key_value: BUILDING STORY 4 THERMALZONE LARGEHOTEL BANQUET PEOPLE 2",
               "Is Initialized",
               "!! TIMESERIES NAME: Zone Thermal Comfort Fanger Model PPD AND key_value: BUILDING STORY 4 THERMALZONE LARGEHOTEL LOBBY PEOPLE 1",
               "Is Initialized",
               "!! TIMESERIES NAME: Zone Thermal Comfort Fanger Model PPD AND key_value: BUILDING STORY 5 THERMALZONE LARGEHOTEL GUESTROOM PEOPLE 4",
               "Is Initialized",
               "!! TIMESERIES NAME: Zone Thermal Comfort Fanger Model PPD AND key_value: BUILDING STORY 6 THERMALZONE LARGEHOTEL GUESTROOM PEOPLE 2",
               "Is Initialized",
               "!! TIMESERIES NAME: Zone Thermal Comfort Fanger Model PPD AND key_value: BUILDING STORY 7 THERMALZONE LARGEHOTEL GUESTROOM PEOPLE 5",
               "Is Initialized",
               "!! TIMESERIES NAME: Zone Thermal Comfort Fanger Model PPD AND key_value: BUILDING STORY 8 THERMALZONE LARGEHOTEL GUESTROOM PEOPLE 6",
               "Is Initialized",
               "!! TIMESERIES NAME: Zone Thermal Comfort Fanger Model PPD AND key_value: BUILDING STORY 9 THERMALZONE LARGEHOTEL GUESTROOM PEOPLE 7",
               "Is Initialized",
               "timeseries Zone Thermal Comfort Fanger Model PPD: hours out of bounds: 588.0",
               "TIMESERIES: Net Electric Energy",
               "KEY VALUES: []",
               "!! TIMESERIES NAME: Net Electric Energy AND key_value: ",
               "Is NOT Initialized",
               "TIMESERIES: Electricity:Facility Power",
               "KEY VALUES: []",
               "!! TIMESERIES NAME: Electricity:Facility Power AND key_value: ",
               "Is NOT Initialized",
               "timeseries_name: Electricity:Facility Power, key: Electricity:Facility",
               "TIMESERIES: ElectricityProduced:Facility Power",
               "KEY VALUES: []",
               "!! TIMESERIES NAME: ElectricityProduced:Facility Power AND key_value: ",
               "Is NOT Initialized",
               "timeseries_name: ElectricityProduced:Facility Power, key: ElectricityProduced:Facility",
               "TIMESERIES: Electricity:Facility Apparent Power",
               "KEY VALUES: []",
               "!! TIMESERIES NAME: Electricity:Facility Apparent Power AND key_value: ",
               "Is NOT Initialized",
               "timeseries_name: Electricity:Facility Apparent Power, key: Electricity:Facility",
               "TIMESERIES: ElectricityProduced:Facility Apparent Power",
               "KEY VALUES: []",
               "!! TIMESERIES NAME: ElectricityProduced:Facility Apparent Power AND key_value: ",
               "Is NOT Initialized",
               "timeseries_name: ElectricityProduced:Facility Apparent Power, key: ElectricityProduced:Facility",
               "TIMESERIES: Net Power",
               "KEY VALUES: []",
               "!! TIMESERIES NAME: Net Power AND key_value: ",
               "Is NOT Initialized",
               "Power calc",
               "TIMESERIES: Net Apparent Power",
               "KEY VALUES: []",
               "!! TIMESERIES NAME: Net Apparent Power AND key_value: ",
               "Is NOT Initialized",
               "new final_timeseries_names size: 53"
            ],
            "step_result" : "Success",
            "step_values" : [
               {
                  "name" : "feature_id",
                  "value" : "13"
               },
               {
                  "name" : "feature_name",
                  "value" : "Hotel 1"
               },
               {
                  "name" : "feature_type",
                  "value" : "Building"
               },
               {
                  "name" : "reporting_frequency",
                  "value" : "Timestep"
               }
            ],
            "step_warnings" : [
               "Query failed for Life-Cycle Cost Report and TableName='Present Value for Recurring, Nonrecurring and Energy Costs (Before Tax)' AND RowName='LCC_MAT - BUILDING - LIFE CYCLE COSTS' AND ColumnName='Cost'"
            ]
         }
      }
   ],
   "updated_at" : "20200326T193812Z",
   "weather_file" : null
}
