{
   "completed_at" : "20200326T193610Z",
   "completed_status" : "Success",
   "current_step" : 12,
   "description" : "Mall 1",
   "eplusout_err" : "Program Version,EnergyPlus, Version 9.1.0-fafb9d5652, YMD=2020.03.26 13:34,\n   ** Warning ** Timestep: Requested number (1) is less than the suggested minimum of 4.\n   **   ~~~   ** Please see entry for Timestep in Input/Output Reference for discussion of considerations.\n   ************* Beginning Zone Sizing Calculations\n   ** Warning ** ProcessScheduleInput: Schedule:Day:Interval=\"33 SPACE(S) OCC SCH DEFAULT\", Blank Schedule Type Limits Name input -- will not be validated.\n   ** Warning ** ProcessScheduleInput: Schedule:Day:Interval=\"33 SPACE(S) OCC SCH FRIDAY\", Blank Schedule Type Limits Name input -- will not be validated.\n   ** Warning ** ProcessScheduleInput: Schedule:Day:Interval=\"33 SPACE(S) OCC SCH SATURDAY\", Blank Schedule Type Limits Name input -- will not be validated.\n   ** Warning ** ProcessScheduleInput: Schedule:Day:Interval=\"33 SPACE(S) OCC SCH SUMMER DESIGN DAY\", Blank Schedule Type Limits Name input -- will not be validated.\n   ** Warning ** ProcessScheduleInput: Schedule:Day:Interval=\"33 SPACE(S) OCC SCH SUNDAY\", Blank Schedule Type Limits Name input -- will not be validated.\n   ** Warning ** ProcessScheduleInput: Schedule:Day:Interval=\"33 SPACE(S) OCC SCH WINTER DESIGN DAY\", Blank Schedule Type Limits Name input -- will not be validated.\n   ** Warning ** ProcessScheduleInput: Schedule:Day:Interval=\"ECONOMIZER MAX OA FRACTION 70 PCT DEFAULT\", Blank Schedule Type Limits Name input -- will not be validated.\n   ** Warning ** ProcessScheduleInput: Schedule:Day:Interval=\"SCHEDULE DAY 1\", Blank Schedule Type Limits Name input -- will not be validated.\n   ** Warning ** ProcessScheduleInput: Schedule:Day:Interval=\"SCHEDULE DAY 2\", Blank Schedule Type Limits Name input -- will not be validated.\n   ** Warning ** ProcessScheduleInput: Schedule:Day:Interval=\"SCHEDULE DAY 3\", Blank Schedule Type Limits Name input -- will not be validated.\n   ** Warning ** ProcessScheduleInput: Schedule:Day:Interval=\"SCHEDULE DAY 4\", Blank Schedule Type Limits Name input -- will not be validated.\n   ** Warning ** ProcessScheduleInput: Schedule:Day:Interval=\"SCHEDULE DAY 5\", Blank Schedule Type Limits Name input -- will not be validated.\n   ** Warning ** ProcessScheduleInput: Schedule:Day:Interval=\"SCHEDULE DAY 6\", Blank Schedule Type Limits Name input -- will not be validated.\n   ** Warning ** ProcessScheduleInput: Schedule:Year=\"ECONOMIZER MAX OA FRACTION 70 PCT\", Blank Schedule Type Limits Name input -- will not be validated.\n   ** Warning ** ProcessScheduleInput: Schedule:Year=\"ELEVATOR SCHEDULE\", Blank Schedule Type Limits Name input -- will not be validated.\n   ** Warning ** ProcessScheduleInput: Schedule:Constant=\"ALWAYS OFF DISCRETE\", Blank Schedule Type Limits Name input -- will not be validated.\n   ** Warning ** ProcessScheduleInput: Schedule:Constant=\"ALWAYS ON CONTINUOUS\", Blank Schedule Type Limits Name input -- will not be validated.\n   ** Warning ** CheckUsedConstructions: There are 11 nominally unused constructions in input.\n   **   ~~~   ** For explicit details on each unused construction, use Output:Diagnostics,DisplayExtraWarnings;\n   ************* Beginning System Sizing Calculations\n   ** Warning ** Since Zone Minimum Air Flow Input Method = CONSTANT, input for Fixed Minimum Air Flow Rate will be ignored.\n   **   ~~~   ** Occurs in AirTerminal:SingleDuct:VAV:Reheat = BUILDING STORY 1 THERMALZONE VAV TERMINAL\n   ** Warning ** Since Zone Minimum Air Flow Input Method = CONSTANT, input for Fixed Minimum Air Flow Rate will be ignored.\n   **   ~~~   ** Occurs in AirTerminal:SingleDuct:VAV:Reheat = BUILDING STORY 2 THERMALZONE VAV TERMINAL\n   ** Warning ** Since Zone Minimum Air Flow Input Method = CONSTANT, input for Fixed Minimum Air Flow Rate will be ignored.\n   **   ~~~   ** Occurs in AirTerminal:SingleDuct:VAV:Reheat = BUILDING STORY 3 THERMALZONE VAV TERMINAL\n   ************* Beginning Plant Sizing Calculations\n   ** Warning ** In calculating the design coil UA for Coil:Cooling:Water 1 ZONE VAV CLG COIL\n   **   ~~~   ** the coil bypass factor is unrealistically large;\n   **   ~~~   ** The initial design conditions are: Tair,in = 25.2108\n   **   ~~~   **                                    Wair,in = 1.214983E-002\n   **   ~~~   **                                    Twater,in = 6.6667\n   **   ~~~   **                                    Tair,out = 10.9194\n   **   ~~~   **                                    Wair,out = 8.500000E-003\n   ** Warning ** In calculating the design coil UA for Coil:Cooling:Water 1 ZONE VAV 1 CLG COIL\n   **   ~~~   ** the coil bypass factor is unrealistically large;\n   **   ~~~   ** The initial design conditions are: Tair,in = 24.8931\n   **   ~~~   **                                    Wair,in = 1.126406E-002\n   **   ~~~   **                                    Twater,in = 6.6667\n   **   ~~~   **                                    Tair,out = 10.9164\n   **   ~~~   **                                    Wair,out = 8.500000E-003\n   ** Warning ** In calculating the design coil UA for Coil:Cooling:Water 1 ZONE VAV 2 CLG COIL\n   **   ~~~   ** the coil bypass factor is unrealistically large;\n   **   ~~~   ** The initial design conditions are: Tair,in = 24.8353\n   **   ~~~   **                                    Wair,in = 1.068442E-002\n   **   ~~~   **                                    Twater,in = 6.6667\n   **   ~~~   **                                    Tair,out = 10.9145\n   **   ~~~   **                                    Wair,out = 8.500000E-003\n   ** Warning ** GetElectricEIRChillerInput: Chiller:Electric:EIR=\"90.1-2013 WATERCOOLED  ROTARY SCREW CHILLER 0 992TONS 0.6KW/TON\"\n   **   ~~~   ** Energy input ratio as a function of temperature curve output is not equal to 1.0 (+ or - 10%) at reference conditions.\n   **   ~~~   ** Curve output at reference conditions = 1.205\n   ** Warning ** Water heater = 42X 50GAL NATURALGAS WATER HEATER - 20KBTU/HR 0.82 THERM EFF:  Recovery Efficiency and Energy Factor could not be calculated during the test for standard ratings\n   **   ~~~   ** Setpoint was never recovered and/or heater never turned on\n   ** Warning ** Water heater = 42X 50GAL NATURALGAS WATER HEATER - 20KBTU/HR 1 0.82 THERM EFF:  Recovery Efficiency and Energy Factor could not be calculated during the test for standard ratings\n   **   ~~~   ** Setpoint was never recovered and/or heater never turned on\n   ** Warning ** Water heater = 83X 50GAL NATURALGAS WATER HEATER - 20KBTU/HR 0.82 THERM EFF:  Recovery Efficiency and Energy Factor could not be calculated during the test for standard ratings\n   **   ~~~   ** Setpoint was never recovered and/or heater never turned on\n   ** Warning ** Missing temperature setpoint for LeavingSetpointModulated mode Boiler named BOILER 11983KBTU/HR 0.8 THERMAL EFF\n   **   ~~~   **   A temperature setpoint is needed at the outlet node of a boiler in variable flow mode\n   **   ~~~   **   use a Setpoint Manager to establish a setpoint at the boiler outlet node \n   **   ~~~   **   or use an EMS actuator to establish a setpoint at the boiler outlet node \n   **   ~~~   **   The overall loop setpoint will be assumed for Boiler. The simulation continues ... \n   ** Warning ** Output:Meter: invalid Key Name=\"HEATING:ADDITIONALFUEL\" - not found.\n   ** Warning ** Output:Meter: invalid Key Name=\"HEATING:DISTRICTCOOLING\" - not found.\n   ** Warning ** Output:Meter: invalid Key Name=\"HEATING:DISTRICTHEATING\" - not found.\n   ** Warning ** Output:Meter: invalid Key Name=\"HEATING:WATER\" - not found.\n   ** Warning ** Output:Meter: invalid Key Name=\"COOLING:GAS\" - not found.\n   ** Warning ** Output:Meter: invalid Key Name=\"COOLING:ADDITIONALFUEL\" - not found.\n   ** Warning ** Output:Meter: invalid Key Name=\"COOLING:DISTRICTCOOLING\" - not found.\n   ** Warning ** Output:Meter: invalid Key Name=\"COOLING:DISTRICTHEATING\" - not found.\n   ** Warning ** Output:Meter: invalid Key Name=\"COOLING:WATER\" - not found.\n   ** Warning ** Output:Meter: invalid Key Name=\"INTERIORLIGHTS:GAS\" - not found.\n   ** Warning ** Output:Meter: invalid Key Name=\"INTERIORLIGHTS:ADDITIONALFUEL\" - not found.\n   ** Warning ** Output:Meter: invalid Key Name=\"INTERIORLIGHTS:DISTRICTCOOLING\" - not found.\n   ** Warning ** Output:Meter: invalid Key Name=\"INTERIORLIGHTS:DISTRICTHEATING\" - not found.\n   ** Warning ** Output:Meter: invalid Key Name=\"INTERIORLIGHTS:WATER\" - not found.\n   ** Warning ** Output:Meter: invalid Key Name=\"EXTERIORLIGHTS:GAS\" - not found.\n   ** Warning ** Output:Meter: invalid Key Name=\"EXTERIORLIGHTS:ADDITIONALFUEL\" - not found.\n   ** Warning ** Output:Meter: invalid Key Name=\"EXTERIORLIGHTS:DISTRICTCOOLING\" - not found.\n   ** Warning ** Output:Meter: invalid Key Name=\"EXTERIORLIGHTS:DISTRICTHEATING\" - not found.\n   ** Warning ** Output:Meter: invalid Key Name=\"EXTERIORLIGHTS:WATER\" - not found.\n   ** Warning ** Output:Meter: invalid Key Name=\"INTERIOREQUIPMENT:GAS\" - not found.\n   ** Warning ** Output:Meter: invalid Key Name=\"INTERIOREQUIPMENT:ADDITIONALFUEL\" - not found.\n   ** Warning ** Output:Meter: invalid Key Name=\"INTERIOREQUIPMENT:DISTRICTCOOLING\" - not found.\n   ** Warning ** Output:Meter: invalid Key Name=\"INTERIOREQUIPMENT:DISTRICTHEATING\" - not found.\n   ** Warning ** Output:Meter: invalid Key Name=\"INTERIOREQUIPMENT:WATER\" - not found.\n   ** Warning ** Output:Meter: invalid Key Name=\"EXTERIOREQUIPMENT:ELECTRICITY\" - not found.\n   ** Warning ** Output:Meter: invalid Key Name=\"EXTERIOREQUIPMENT:GAS\" - not found.\n   ** Warning ** Output:Meter: invalid Key Name=\"EXTERIOREQUIPMENT:ADDITIONALFUEL\" - not found.\n   ** Warning ** Output:Meter: invalid Key Name=\"EXTERIOREQUIPMENT:DISTRICTCOOLING\" - not found.\n   ** Warning ** Output:Meter: invalid Key Name=\"EXTERIOREQUIPMENT:DISTRICTHEATING\" - not found.\n   ** Warning ** Output:Meter: invalid Key Name=\"EXTERIOREQUIPMENT:WATER\" - not found.\n   ** Warning ** Output:Meter: invalid Key Name=\"FANS:GAS\" - not found.\n   ** Warning ** Output:Meter: invalid Key Name=\"FANS:ADDITIONALFUEL\" - not found.\n   ** Warning ** Output:Meter: invalid Key Name=\"FANS:DISTRICTCOOLING\" - not found.\n   ** Warning ** Output:Meter: invalid Key Name=\"FANS:DISTRICTHEATING\" - not found.\n   ** Warning ** Output:Meter: invalid Key Name=\"FANS:WATER\" - not found.\n   ** Warning ** Output:Meter: invalid Key Name=\"PUMPS:GAS\" - not found.\n   ** Warning ** Output:Meter: invalid Key Name=\"PUMPS:ADDITIONALFUEL\" - not found.\n   ** Warning ** Output:Meter: invalid Key Name=\"PUMPS:DISTRICTCOOLING\" - not found.\n   ** Warning ** Output:Meter: invalid Key Name=\"PUMPS:DISTRICTHEATING\" - not found.\n   ** Warning ** Output:Meter: invalid Key Name=\"PUMPS:WATER\" - not found.\n   ** Warning ** Output:Meter: invalid Key Name=\"HEATREJECTION:GAS\" - not found.\n   ** Warning ** Output:Meter: invalid Key Name=\"HEATREJECTION:ADDITIONALFUEL\" - not found.\n   ** Warning ** Output:Meter: invalid Key Name=\"HEATREJECTION:DISTRICTCOOLING\" - not found.\n   ** Warning ** Output:Meter: invalid Key Name=\"HEATREJECTION:DISTRICTHEATING\" - not found.\n   ** Warning ** Output:Meter: invalid Key Name=\"HUMIDIFIER:ELECTRICITY\" - not found.\n   ** Warning ** Output:Meter: invalid Key Name=\"HUMIDIFIER:GAS\" - not found.\n   ** Warning ** Output:Meter: invalid Key Name=\"HUMIDIFIER:ADDITIONALFUEL\" - not found.\n   ** Warning ** Output:Meter: invalid Key Name=\"HUMIDIFIER:DISTRICTCOOLING\" - not found.\n   ** Warning ** Output:Meter: invalid Key Name=\"HUMIDIFIER:DISTRICTHEATING\" - not found.\n   ** Warning ** Output:Meter: invalid Key Name=\"HUMIDIFIER:WATER\" - not found.\n   ** Warning ** Output:Meter: invalid Key Name=\"HEATRECOVERY:ELECTRICITY\" - not found.\n   ** Warning ** Output:Meter: invalid Key Name=\"HEATRECOVERY:GAS\" - not found.\n   ** Warning ** Output:Meter: invalid Key Name=\"HEATRECOVERY:ADDITIONALFUEL\" - not found.\n   ** Warning ** Output:Meter: invalid Key Name=\"HEATRECOVERY:DISTRICTCOOLING\" - not found.\n   ** Warning ** Output:Meter: invalid Key Name=\"HEATRECOVERY:DISTRICTHEATING\" - not found.\n   ** Warning ** Output:Meter: invalid Key Name=\"HEATRECOVERY:WATER\" - not found.\n   ** Warning ** Output:Meter: invalid Key Name=\"WATERSYSTEMS:ELECTRICITY\" - not found.\n   ** Warning ** Output:Meter: invalid Key Name=\"WATERSYSTEMS:ADDITIONALFUEL\" - not found.\n   ** Warning ** Output:Meter: invalid Key Name=\"WATERSYSTEMS:DISTRICTCOOLING\" - not found.\n   ** Warning ** Output:Meter: invalid Key Name=\"WATERSYSTEMS:DISTRICTHEATING\" - not found.\n   ** Warning ** Output:Meter: invalid Key Name=\"REFRIGERATION:ELECTRICITY\" - not found.\n   ** Warning ** Output:Meter: invalid Key Name=\"REFRIGERATION:GAS\" - not found.\n   ** Warning ** Output:Meter: invalid Key Name=\"REFRIGERATION:ADDITIONALFUEL\" - not found.\n   ** Warning ** Output:Meter: invalid Key Name=\"REFRIGERATION:DISTRICTCOOLING\" - not found.\n   ** Warning ** Output:Meter: invalid Key Name=\"REFRIGERATION:DISTRICTHEATING\" - not found.\n   ** Warning ** Output:Meter: invalid Key Name=\"REFRIGERATION:WATER\" - not found.\n   ** Warning ** Output:Meter: invalid Key Name=\"GENERATORS:ELECTRICITY\" - not found.\n   ** Warning ** Output:Meter: invalid Key Name=\"GENERATORS:GAS\" - not found.\n   ** Warning ** Output:Meter: invalid Key Name=\"GENERATORS:ADDITIONALFUEL\" - not found.\n   ** Warning ** Output:Meter: invalid Key Name=\"GENERATORS:DISTRICTCOOLING\" - not found.\n   ** Warning ** Output:Meter: invalid Key Name=\"GENERATORS:DISTRICTHEATING\" - not found.\n   ** Warning ** Output:Meter: invalid Key Name=\"GENERATORS:WATER\" - not found.\n   ** Warning ** Output:Meter: invalid Key Name=\"ADDITIONALFUEL:FACILITY\" - not found.\n   ** Warning ** Output:Meter: invalid Key Name=\"DISTRICTCOOLING:FACILITY\" - not found.\n   ** Warning ** Output:Meter: invalid Key Name=\"DISTRICTHEATING:FACILITY\" - not found.\n   ** Warning ** Output:Meter:MeterFileOnly requested for \"Electricity:Facility\" (TimeStep), already on \"Output:Meter\". Will report to both eplusout.eso and eplusout.mtr\n   ** Warning ** Output:Meter:MeterFileOnly: invalid Key Name=\"ELECTRICITYPRODUCED:FACILITY\" - not found.\n   ** Warning ** Output:Meter:MeterFileOnly requested for \"Gas:Facility\" (TimeStep), already on \"Output:Meter\". Will report to both eplusout.eso and eplusout.mtr\n   ** Warning ** Output:Meter:MeterFileOnly: invalid Key Name=\"DISTRICTCOOLING:FACILITY\" - not found.\n   ** Warning ** Output:Meter:MeterFileOnly: invalid Key Name=\"DISTRICTHEATING:FACILITY\" - not found.\n   ************* Testing Individual Branch Integrity\n   ************* All Branches passed integrity testing\n   ************* Testing Individual Supply Air Path Integrity\n   ************* All Supply Air Paths passed integrity testing\n   ************* Testing Individual Return Air Path Integrity\n   ************* All Return Air Paths passed integrity testing\n   ************* No node connection errors were found.\n   ************* Beginning Simulation\n   ** Warning ** Processing Monthly Tabular Reports: Variable names not valid for this simulation\n   **   ~~~   ** ...use Output:Diagnostics,DisplayExtraWarnings; to show more details on individual variables.\n   ** Warning ** CoolingTower:VariableSpeed \"PROPELLER OR AXIAL VARIABLE SPEED FAN OPEN COOLING TOWER 40.2 GPM/HP\" - Inlet air wet-bulb temperature is outside model boundaries at -1.67.\n   **   ~~~   **  ...Valid range = -1.00 to 26.67. Occurrence info = RUN PERIOD 1, 01/01 08:00 - 08:10\n   **   ~~~   **  ...Inlet air wet-bulb temperature passed to the model = -1.000000\n   **   ~~~   **  ...Wet-bulb temperatures outside model boundaries may not adversely affect tower performance.\n   ** Warning ** CoolingTower:VariableSpeed \"PROPELLER OR AXIAL VARIABLE SPEED FAN OPEN COOLING TOWER 40.2 GPM/HP\" - Tower approach temperature is outside model boundaries at 22.78.\n   **   ~~~   **  ...Valid range = 1.11 to 11.11. Occurrence info = RUN PERIOD 1, 01/01 08:00 - 08:10\n   **   ~~~   **  ...Tower approach temperature passed to the model = 22.77706\n   **   ~~~   **  ...Approach temperatures outside model boundaries may not adversely affect tower performance.\n   **   ~~~   **  ...This is not an unexpected occurrence when simulating actual conditions.\n   ** Warning ** CoolingTower:VariableSpeed \"PROPELLER OR AXIAL VARIABLE SPEED FAN OPEN COOLING TOWER 40.2 GPM/HP\" - Inlet air wet-bulb temperature is outside model boundaries at -1.67.\n   **   ~~~   **  ...Valid range = -1.00 to 26.67. Occurrence info = RUN PERIOD 1, 01/01 08:10 - 08:20\n   **   ~~~   **  ...Inlet air wet-bulb temperature passed to the model = -1.000000\n   **   ~~~   **  ...Wet-bulb temperatures outside model boundaries may not adversely affect tower performance.\n   ** Warning ** CoolingTower:VariableSpeed \"PROPELLER OR AXIAL VARIABLE SPEED FAN OPEN COOLING TOWER 40.2 GPM/HP\" - Inlet air wet-bulb temperature is outside model boundaries at -1.67.\n   **   ~~~   **  ...Valid range = -1.00 to 26.67. Occurrence info = RUN PERIOD 1, 01/01 08:20 - 08:30\n   **   ~~~   **  ...Inlet air wet-bulb temperature passed to the model = -1.000000\n   **   ~~~   **  ...Wet-bulb temperatures outside model boundaries may not adversely affect tower performance.\n   ** Warning ** CoolingTower:VariableSpeed \"PROPELLER OR AXIAL VARIABLE SPEED FAN OPEN COOLING TOWER 40.2 GPM/HP\" - Inlet air wet-bulb temperature is outside model boundaries at -1.67.\n   **   ~~~   **  ...Valid range = -1.00 to 26.67. Occurrence info = RUN PERIOD 1, 01/01 08:30 - 08:40\n   **   ~~~   **  ...Inlet air wet-bulb temperature passed to the model = -1.000000\n   **   ~~~   **  ...Wet-bulb temperatures outside model boundaries may not adversely affect tower performance.\n   ** Warning ** CoolingTower:VariableSpeed \"PROPELLER OR AXIAL VARIABLE SPEED FAN OPEN COOLING TOWER 40.2 GPM/HP\" - Inlet air wet-bulb temperature is outside model boundaries at -1.67.\n   **   ~~~   **  ...Valid range = -1.00 to 26.67. Occurrence info = RUN PERIOD 1, 01/01 08:40 - 08:50\n   **   ~~~   **  ...Inlet air wet-bulb temperature passed to the model = -1.000000\n   **   ~~~   **  ...Wet-bulb temperatures outside model boundaries may not adversely affect tower performance.\n   ** Warning ** CoolingTower:VariableSpeed \"PROPELLER OR AXIAL VARIABLE SPEED FAN OPEN COOLING TOWER 40.2 GPM/HP\" - Tower range temperature is outside model boundaries at 0.71.\n   **   ~~~   **  ...Valid range = 1.11 to 11.11. Occurrence info = RUN PERIOD 1, 01/01 10:00 - 10:30\n   **   ~~~   **  ...Tower range temperature passed to the model = 0.71030\n   **   ~~~   **  ...Range temperatures outside model boundaries may not adversely affect tower performance.\n   **   ~~~   **  ...This is not an unexpected occurrence when simulating actual conditions.\n   ** Warning ** More than 4% of time (350.4 hours) uncomfortable in one or more zones \n   **   ~~~   ** Based on ASHRAE 55-2004 graph (Section 5.2.1.1)\n   **   ~~~   ** During Environment [01/01/2019 - 12/31/2019]: RUN PERIOD 1\n   **   ~~~   ** 1470.0 hours were uncomfortable in zone: BUILDING STORY 1 THERMALZONE\n   **   ~~~   ** 667.0 hours were uncomfortable in zone: BUILDING STORY 3 THERMALZONE\n   ** Warning ** The resource referenced by LifeCycleCost:UsePriceEscalation= \"U.S. AVG  COMMERCIAL-ELECTRICITY\" has no energy cost. \n   **   ~~~   ** ... It is likely that the wrong resource is used. The resource should match the meter used in Utility:Tariff.\n   ** Warning ** The resource referenced by LifeCycleCost:UsePriceEscalation= \"U.S. AVG  COMMERCIAL-DISTILLATE OIL\" has no energy cost. \n   **   ~~~   ** ... It is likely that the wrong resource is used. The resource should match the meter used in Utility:Tariff.\n   ** Warning ** The resource referenced by LifeCycleCost:UsePriceEscalation= \"U.S. AVG  COMMERCIAL-RESIDUAL OIL\" has no energy cost. \n   **   ~~~   ** ... It is likely that the wrong resource is used. The resource should match the meter used in Utility:Tariff.\n   ** Warning ** The resource referenced by LifeCycleCost:UsePriceEscalation= \"U.S. AVG  COMMERCIAL-NATURAL GAS\" has no energy cost. \n   **   ~~~   ** ... It is likely that the wrong resource is used. The resource should match the meter used in Utility:Tariff.\n   ** Warning ** The resource referenced by LifeCycleCost:UsePriceEscalation= \"U.S. AVG  COMMERCIAL-COAL\" has no energy cost. \n   **   ~~~   ** ... It is likely that the wrong resource is used. The resource should match the meter used in Utility:Tariff.\n   ************* Simulation Error Summary *************\n   ** Warning ** The following Report Variables were requested but not generated -- check.rdd file\n   **   ~~~   ** Either the IDF did not contain these elements, the variable name is misspelled,\n   **   ~~~   ** or the requested variable is an advanced output which requires Output : Diagnostics, DisplayAdvancedReportVariables;\n   ************* Key=*, VarName=FANGERPMV, Frequency=TimeStep\n   ************* Key=*, VarName=FANGERPPD, Frequency=TimeStep\n   ************* Key=*, VarName=TIME NOT COMFORTABLE SUMMER CLOTHES, Frequency=TimeStep\n   ************* Key=*, VarName=TIME NOT COMFORTABLE WINTER CLOTHES, Frequency=TimeStep\n   ************* Key=*, VarName=TIME NOT COMFORTABLE SUMMER OR WINTER CLOTHES, Frequency=TimeStep\n   ************* Key=*, VarName=DISTRICT COOLING CHILLED WATER RATE, Frequency=TimeStep\n   ************* Key=*, VarName=DISTRICT COOLING MASS FLOW RATE, Frequency=TimeStep\n   ************* Key=*, VarName=DISTRICT COOLING INLET TEMPERATURE, Frequency=TimeStep\n   ************* Key=*, VarName=DISTRICT COOLING OUTLET TEMPERATURE, Frequency=TimeStep\n   ************* Key=*, VarName=DISTRICT HEATING HOT WATER RATE, Frequency=TimeStep\n   ************* Key=*, VarName=DISTRICT HEATING MASS FLOW RATE, Frequency=TimeStep\n   ************* Key=*, VarName=DISTRICT HEATING INLET TEMPERATURE, Frequency=TimeStep\n   ************* Key=*, VarName=DISTRICT HEATING OUTLET TEMPERATURE, Frequency=TimeStep\n   ************* There are 9 unused schedules in input.\n   ************* There are 15 unused week schedules in input.\n   ************* There are 41 unused day schedules in input.\n   ************* Use Output:Diagnostics,DisplayUnusedSchedules; to see them.\n   *************\n   ************* ===== Recurring Error Summary =====\n   ************* The following recurring error messages occurred.\n   *************\n   *************  ** Warning ** CoolingTower:VariableSpeed \"PROPELLER OR AXIAL VARIABLE SPEED FAN OPEN COOLING TOWER 40.2 GPM/HP\" - Tower approach temperature is out of range error continues...\n   *************  **   ~~~   **   This error occurred 6967 total times;\n   *************  **   ~~~   **   during Warmup 0 times;\n   *************  **   ~~~   **   during Sizing 0 times.\n   *************  **   ~~~   **   Max=37.397802  Min=11.111112\n   *************\n   *************  ** Warning ** CoolingTower:VariableSpeed \"PROPELLER OR AXIAL VARIABLE SPEED FAN OPEN COOLING TOWER 40.2 GPM/HP\" - Inlet air wet-bulb temperature is out of range error continues...\n   *************  **   ~~~   **   This error occurred 2978 total times;\n   *************  **   ~~~   **   during Warmup 0 times;\n   *************  **   ~~~   **   during Sizing 0 times.\n   *************  **   ~~~   **   Max=-1.00898  Min=-16.286691\n   *************\n   *************  ** Warning ** CoolingTower:VariableSpeed \"PROPELLER OR AXIAL VARIABLE SPEED FAN OPEN COOLING TOWER 40.2 GPM/HP\" - Tower range temperature is out of range error continues...\n   *************  **   ~~~   **   This error occurred 4520 total times;\n   *************  **   ~~~   **   during Warmup 0 times;\n   *************  **   ~~~   **   during Sizing 0 times.\n   *************  **   ~~~   **   Max=1.110909  Min=9.221825E-005\n   *************\n   *************\n   ************* ===== Final Error Summary =====\n   ************* The following error categories occurred.  Consider correcting or noting.\n   ************* Nominally Unused Constructions\n   ************* ..The nominally unused constructions warning is provided to alert you to potential conditions that can cause\n   ************* ..extra time during simulation. Each construction is calculated by the algorithm indicated in the HeatBalanceAlgorithm\n   ************* ..object. You may remove the constructions indicated (when you use the DisplayExtraWarnings option).\n   *************\n   ************* EnergyPlus Warmup Error Summary. During Warmup: 0 Warning; 0 Severe Errors.\n   ************* EnergyPlus Sizing Error Summary. During Sizing: 21 Warning; 0 Severe Errors.\n   ************* EnergyPlus Completed Successfully-- 14590 Warning; 0 Severe Errors; Elapsed Time=00hr 01min  8.00sec\n",
   "file_paths" : [
      "C:/urbanopt-example-reopt-project/run/baseline_scenario/12/generated_files",
      "C:/urbanopt-example-reopt-project/mappers/../weather/",
      "C:/Ruby22-x64/lib/ruby/gems/2.2.0/gems/openstudio-model-articulation-0.1.1/lib/files",
      "C:/Ruby22-x64/lib/ruby/gems/2.2.0/gems/openstudio-common-measures-0.1.2/lib/files",
      "C:/Ruby22-x64/lib/ruby/gems/2.2.0/bundler/gems/urbanopt-reopt-gem-b83bd6e83bc6/lib/files",
      "C:/urbanopt-example-reopt-project/weather",
      "C:/Ruby22-x64/lib/ruby/gems/2.2.0/gems/openstudio-extension-0.1.6/lib/files",
      "./files",
      "./weather",
      "../../files",
      "../../weather",
      "./"
   ],
   "hash" : "40F29960",
   "measure_paths" : [
      "C:/Ruby22-x64/lib/ruby/gems/2.2.0/gems/openstudio-model-articulation-0.1.1/lib/measures",
      "C:/Ruby22-x64/lib/ruby/gems/2.2.0/gems/openstudio-common-measures-0.1.2/lib/measures",
      "C:/Ruby22-x64/lib/ruby/gems/2.2.0/bundler/gems/urbanopt-reopt-gem-b83bd6e83bc6/lib/measures",
      "C:/Ruby22-x64/lib/ruby/gems/2.2.0/gems/urbanopt-geojson-0.2.0.pre1/lib/measures",
      "C:/Ruby22-x64/lib/ruby/gems/2.2.0/gems/openstudio-extension-0.1.6/lib/measures",
      "C:/Ruby22-x64/lib/ruby/gems/2.2.0/bundler/gems/urbanopt-scenario-gem-76152d90b58a/lib/measures"
   ],
   "name" : "Mall 1",
   "run_directory" : "C:/urbanopt-example-reopt-project/run/baseline_scenario/12",
   "seed_file" : null,
   "started_at" : "20200326T193356Z",
   "steps" : [
      {
         "arguments" : {
            "begin_date" : "2019-01-01",
            "end_date" : "2019-12-31",
            "timesteps_per_hour" : 1
         },
         "measure_dir_name" : "set_run_period",
         "result" : {
            "completed_at" : "20200326T193356Z",
            "measure_class_name" : "SetRunPeriod",
            "measure_display_name" : "SetRunPeriod",
            "measure_name" : "set_run_period",
            "measure_taxonomy" : "Envelope.Form",
            "measure_type" : "ModelMeasure",
            "measure_uid" : "7a84292a-3975-4ab3-9284-6edabcbe750b",
            "measure_version_id" : "c3a54143-dcda-4280-850b-c26cd7260211",
            "measure_version_modified" : "20200229T024314Z",
            "measure_xml_checksum" : "2AF3A68E",
            "started_at" : "20200326T193356Z",
            "stderr" : "",
            "stdout" : "",
            "step_errors" : [],
            "step_files" : [],
            "step_info" : [],
            "step_result" : "Success",
            "step_values" : [
               {
                  "name" : "timesteps_per_hour",
                  "value" : 1
               },
               {
                  "name" : "begin_date",
                  "value" : "2019-01-01"
               },
               {
                  "name" : "end_date",
                  "value" : "2019-12-31"
               }
            ],
            "step_warnings" : []
         }
      },
      {
         "arguments" : {
            "__SKIP__" : false,
            "climate_zone" : "ASHRAE 169-2013-6A",
            "weather_file_name" : "USA_NY_Buffalo-Greater.Buffalo.Intl.AP.725280_TMY3.epw"
         },
         "measure_dir_name" : "ChangeBuildingLocation",
         "result" : {
            "completed_at" : "20200326T193357Z",
            "measure_class_name" : "ChangeBuildingLocation",
            "measure_display_name" : "ChangeBuildingLocation",
            "measure_name" : "change_building_location",
            "measure_taxonomy" : "Whole Building.Space Types",
            "measure_type" : "ModelMeasure",
            "measure_uid" : "d4db4971-f5ba-11e3-a3ac-0800200c9a66",
            "measure_version_id" : "ee75726e-6dad-4da9-9f64-a40f4e79bd92",
            "measure_version_modified" : "20200229T024319Z",
            "measure_xml_checksum" : "057E8D9D",
            "started_at" : "20200326T193356Z",
            "stderr" : "",
            "stdout" : "[openstudio.model.YearDescription] <1> 'UseWeatherFile' is not yet a supported option for YearDescription\n[openstudio.model.YearDescription] <1> 'UseWeatherFile' is not yet a supported option for YearDescription\n",
            "step_errors" : [],
            "step_files" : [],
            "step_final_condition" : "The final weather file is Buffalo Niagara Intl Ap and the model has 3 design day objects.",
            "step_info" : [
               "city is Buffalo Niagara Intl Ap. State is NY",
               "mean dry bulb is 8.966666666666667",
               "Adding object Buffalo Niagara Intl Ap Ann Clg .4% Condns DB=>MWB",
               "Adding object Buffalo Niagara Intl Ap Ann Clg .4% Condns WB=>MDB",
               "Adding object Buffalo Niagara Intl Ap Ann Htg 99.6% Condns DB",
               "Setting Climate Zone to 6A"
            ],
            "step_initial_condition" : "No weather file is set. The model has 0 design day objects",
            "step_result" : "Success",
            "step_values" : [
               {
                  "name" : "weather_file_name",
                  "value" : "USA_NY_Buffalo-Greater.Buffalo.Intl.AP.725280_TMY3.epw"
               },
               {
                  "name" : "climate_zone",
                  "value" : "ASHRAE 169-2013-6A"
               },
               {
                  "name" : "set_year",
                  "value" : 0
               },
               {
                  "name" : "use_upstream_args",
                  "value" : true
               },
               {
                  "name" : "epw_gsub",
                  "value" : "Do Nothing"
               },
               {
                  "name" : "reported_climate_zone",
                  "value" : "ASHRAE 169-2013-6A"
               }
            ],
            "step_warnings" : []
         }
      },
      {
         "arguments" : {
            "__SKIP__" : false,
            "bar_division_method" : "Multiple Space Types - Individual Stories Sliced",
            "bldg_type_a" : "RetailStripmall",
            "bldg_type_a_num_units" : 0,
            "bldg_type_b" : "SmallOffice",
            "bldg_type_b_fract_bldg_area" : 0,
            "bldg_type_b_num_units" : 0,
            "bldg_type_c" : "SmallOffice",
            "bldg_type_c_fract_bldg_area" : 0,
            "bldg_type_c_num_units" : 0,
            "bldg_type_d" : "SmallOffice",
            "bldg_type_d_fract_bldg_area" : 0,
            "bldg_type_d_num_units" : 0,
            "building_rotation" : 0,
            "floor_height" : 10,
            "ns_to_ew_ratio" : 0,
            "num_stories_above_grade" : 3,
            "num_stories_below_grade" : 0,
            "party_wall_fraction" : 0,
            "single_floor_area" : 124803,
            "story_multiplier" : "None",
            "template" : "90.1-2013",
            "wwr" : 0
         },
         "measure_dir_name" : "create_bar_from_building_type_ratios",
         "result" : {
            "completed_at" : "20200326T193414Z",
            "measure_class_name" : "CreateBarFromBuildingTypeRatios",
            "measure_display_name" : "Create Bar From Building Type Ratios",
            "measure_name" : "create_bar_from_building_type_ratios",
            "measure_taxonomy" : "Envelope.Form",
            "measure_type" : "ModelMeasure",
            "measure_uid" : "6e3a14f8-c3c7-4e03-bc51-bef8a52e1a05",
            "measure_version_id" : "98068f42-8546-42bc-b4a5-6bfcd0e332d4",
            "measure_version_modified" : "20200229T024044Z",
            "measure_xml_checksum" : "2AF3A68E",
            "started_at" : "20200326T193405Z",
            "stderr" : "",
            "stdout" : "",
            "step_errors" : [],
            "step_files" : [],
            "step_final_condition" : "The building finished with 33 spaces.",
            "step_info" : [
               "Replacing argument named climate_zone from current measure with a value of ASHRAE 169-2013-6A from ChangeBuildingLocation.",
               "0.0 value for aspect ratio will be replaced with smart default for RetailStripmall of 4.0.",
               "0.0 value for minimum perimeter multiplier will be replaced with smart default for RetailStripmall of 1.0.",
               "0.0 value for window to wall ratio will be replaced with smart default for RetailStripmall of 0.11.",
               "Creating Space Types for RetailStripmall.",
               "Making bar with length of 707 ft and width of 177 ft",
               "Intersecting and matching surfaces in model, this will create additional geometry.",
               "Created bar envelope with floor area of 374,409 ft^2. Total building area is 374,409 ft^2."
            ],
            "step_initial_condition" : "The building started with 0 spaces.",
            "step_result" : "Success",
            "step_values" : [
               {
                  "name" : "bldg_type_a",
                  "value" : "RetailStripmall"
               },
               {
                  "name" : "bldg_type_a_num_units",
                  "value" : 0
               },
               {
                  "name" : "bldg_type_b",
                  "value" : "SmallOffice"
               },
               {
                  "name" : "bldg_type_b_fract_bldg_area",
                  "value" : 0
               },
               {
                  "name" : "bldg_type_b_num_units",
                  "value" : 0
               },
               {
                  "name" : "bldg_type_c",
                  "value" : "SmallOffice"
               },
               {
                  "name" : "bldg_type_c_fract_bldg_area",
                  "value" : 0
               },
               {
                  "name" : "bldg_type_c_num_units",
                  "value" : 0
               },
               {
                  "name" : "bldg_type_d",
                  "value" : "SmallOffice"
               },
               {
                  "name" : "bldg_type_d_fract_bldg_area",
                  "value" : 0
               },
               {
                  "name" : "bldg_type_d_num_units",
                  "value" : 0
               },
               {
                  "name" : "total_bldg_floor_area",
                  "value" : 10000
               },
               {
                  "name" : "single_floor_area",
                  "value" : 124803
               },
               {
                  "name" : "floor_height",
                  "value" : 10
               },
               {
                  "name" : "custom_height_bar",
                  "value" : true
               },
               {
                  "name" : "num_stories_above_grade",
                  "value" : 3
               },
               {
                  "name" : "num_stories_below_grade",
                  "value" : 0
               },
               {
                  "name" : "building_rotation",
                  "value" : 0
               },
               {
                  "name" : "template",
                  "value" : "90.1-2013"
               },
               {
                  "name" : "ns_to_ew_ratio",
                  "value" : 0
               },
               {
                  "name" : "perim_mult",
                  "value" : 0
               },
               {
                  "name" : "bar_sep_dist_mult",
                  "value" : 10
               },
               {
                  "name" : "wwr",
                  "value" : 0
               },
               {
                  "name" : "party_wall_fraction",
                  "value" : 0
               },
               {
                  "name" : "party_wall_stories_north",
                  "value" : 0
               },
               {
                  "name" : "party_wall_stories_south",
                  "value" : 0
               },
               {
                  "name" : "party_wall_stories_east",
                  "value" : 0
               },
               {
                  "name" : "party_wall_stories_west",
                  "value" : 0
               },
               {
                  "name" : "bottom_story_ground_exposed_floor",
                  "value" : true
               },
               {
                  "name" : "top_story_exterior_exposed_roof",
                  "value" : true
               },
               {
                  "name" : "story_multiplier",
                  "value" : "None"
               },
               {
                  "name" : "make_mid_story_surfaces_adiabatic",
                  "value" : false
               },
               {
                  "name" : "bar_division_method",
                  "value" : "Multiple Space Types - Individual Stories Sliced"
               },
               {
                  "name" : "double_loaded_corridor",
                  "value" : "Primary Space Type"
               },
               {
                  "name" : "space_type_sort_logic",
                  "value" : "Building Type > Size"
               },
               {
                  "name" : "use_upstream_args",
                  "value" : true
               },
               {
                  "name" : "climate_zone",
                  "value" : "Lookup From Stat File"
               },
               {
                  "name" : "wall_area_ip",
                  "units" : "ft^2",
                  "value" : 52991.20209997143
               },
               {
                  "name" : "ns_wall_area_ip",
                  "units" : "ft^2",
                  "value" : 42392.961679977183
               },
               {
                  "name" : "ew_wall_area_ip",
                  "units" : "ft^2",
                  "value" : 10598.24041999425
               },
               {
                  "name" : "floor_area_to_perim_ratio",
                  "value" : 21.535624533428376
               },
               {
                  "name" : "bar_width",
                  "units" : "ft",
                  "value" : 176.63734033323757
               }
            ],
            "step_warnings" : [
               "User-defined single floor area was used for calculation of total building floor area",
               "Cannot use custom height bar with single floor area method, will not create custom height bar."
            ]
         }
      },
      {
         "arguments" : {
            "__SKIP__" : false,
            "add_hvac" : false,
            "add_refrigeration" : false,
            "template" : "90.1-2013"
         },
         "measure_dir_name" : "create_typical_building_from_model",
         "name" : "create_typical_building_from_model 1",
         "result" : {
            "completed_at" : "20200326T193423Z",
            "measure_class_name" : "CreateTypicalBuildingFromModel",
            "measure_display_name" : "Create Typical Building from Model",
            "measure_name" : "create_typical_building_from_model",
            "measure_taxonomy" : "Whole Building.Space Types",
            "measure_type" : "ModelMeasure",
            "measure_uid" : "339a2e3a-273c-4494-bb50-bfe586a0647c",
            "measure_version_id" : "41239158-445a-414c-a6f0-2fba3a7c696c",
            "measure_version_modified" : "20200229T024052Z",
            "measure_xml_checksum" : "EE13F09F",
            "started_at" : "20200326T193414Z",
            "stderr" : "",
            "stdout" : "",
            "step_errors" : [],
            "step_files" : [],
            "step_final_condition" : "The building finished with 1260 objects.",
            "step_info" : [
               "Replacing argument named climate_zone from current measure with a value of ASHRAE 169-2013-6A from ChangeBuildingLocation.",
               "Replacing argument named template from current measure with a value of 90.1-2013 from create_bar_from_building_type_ratios.",
               "Adding loads to space type named StripMall Strip mall - type 3 - 90.1-2013",
               "Adding loads to space type named StripMall Strip mall - type 1 - 90.1-2013",
               "Adding loads to space type named StripMall Strip mall - type 2 - 90.1-2013",
               "Using climate zone ASHRAE 169-2013-6A from user arguments",
               "Adding default construction set named Res 90.1-2013 - StMall - ASHRAE 169-2013-6A",
               "Adding 9.0 elevators each with power of 16,055 (W), plus lights and fans.",
               "Adding Exterior Lights named Parking Areas and Drives Def (W/ft^2) with design level of 0.1 * 705,282.",
               "Adding Exterior Lights named Building Facades Def (W/ft^2) with design level of 0.15 * 17,664.",
               "Adding Exterior Lights named Main Entries Def (W/ft) with design level of 30.0 * 599.",
               "Adding Exterior Lights named Other Doors Def (W/ft) with design level of 20.0 * 329.",
               "Adding StripMall Strip mall - type 1 - 90.1-2013 Service Water Loop to the building. It has 1 water use connections.",
               "Adding StripMall Strip mall - type 2 - 90.1-2013 Service Water Loop to the building. It has 1 water use connections.",
               "Adding StripMall Strip mall - type 3 - 90.1-2013 Service Water Loop to the building. It has 1 water use connections.",
               "Assigning StripMall Strip mall - type 3 - 90.1-2013 Thermostat to thermal zones with StripMall Strip mall - type 3 - 90.1-2013 assigned.",
               "Assigning StripMall Strip mall - type 1 - 90.1-2013 Thermostat to thermal zones with StripMall Strip mall - type 1 - 90.1-2013 assigned.",
               "Assigning StripMall Strip mall - type 2 - 90.1-2013 Thermostat to thermal zones with StripMall Strip mall - type 2 - 90.1-2013 assigned.",
               "Using OpenStudio Standards version 0.2.10 with template 90.1-2013.",
               "Loading OpenStudio Standards data for 90.1-2013",
               "StripMall Strip mall - type 3 had no people, one has been created.",
               "StripMall Strip mall - type 3 set occupancy to 8.0 people/1000 ft^2.",
               "StripMall Strip mall - type 3 had no lights, one has been created.",
               "StripMall Strip mall - type 3 set LPD to 1.25 W/ft^2.",
               "StripMall Strip mall - type 3 had no electric equipment, one has been created.",
               "StripMall Strip mall - type 3 set electric EPD to 0.4 W/ft^2.",
               "StripMall Strip mall - type 3 had no ventilation specification, one has been created.",
               "StripMall Strip mall - type 3 set ventilation per area to 0.2325 cfm/ft^2.",
               "StripMall Strip mall - type 3 set occupancy schedule to RetailStripmall Type3_OCC_SCH.",
               "StripMall Strip mall - type 3 set occupant activity schedule to HotelSmall Activity_Sch.",
               "StripMall Strip mall - type 3 set lighting schedule to RetailStripmall Type3_LIGHT_SCH_2013.",
               "StripMall Strip mall - type 3 set electric equipment schedule to RetailStripmall Type3_EQUIP_SCH.",
               "StripMall Strip mall - type 3 set infiltration schedule to RetailStripmall Type3_Infil_SCH.",
               "StripMall Strip mall - type 1 had no people, one has been created.",
               "StripMall Strip mall - type 1 set occupancy to 8.0 people/1000 ft^2.",
               "StripMall Strip mall - type 1 had no lights, one has been created.",
               "StripMall Strip mall - type 1 set LPD to 1.25 W/ft^2.",
               "StripMall Strip mall - type 1 had no electric equipment, one has been created.",
               "StripMall Strip mall - type 1 set electric EPD to 0.4 W/ft^2.",
               "StripMall Strip mall - type 1 had no ventilation specification, one has been created.",
               "StripMall Strip mall - type 1 set ventilation per area to 0.2325 cfm/ft^2.",
               "StripMall Strip mall - type 1 set occupancy schedule to RetailStripmall Type1_OCC_SCH.",
               "StripMall Strip mall - type 1 set occupant activity schedule to HotelSmall Activity_Sch.",
               "StripMall Strip mall - type 1 set lighting schedule to RetailStripmall Type1_LIGHT_SCH_2013.",
               "StripMall Strip mall - type 1 set electric equipment schedule to RetailStripmall Type1_EQUIP_SCH.",
               "StripMall Strip mall - type 1 set infiltration schedule to RetailStripmall Type1_Infil_SCH.",
               "StripMall Strip mall - type 2 had no people, one has been created.",
               "StripMall Strip mall - type 2 set occupancy to 8.0 people/1000 ft^2.",
               "StripMall Strip mall - type 2 had no lights, one has been created.",
               "StripMall Strip mall - type 2 set LPD to 1.25 W/ft^2.",
               "StripMall Strip mall - type 2 had no electric equipment, one has been created.",
               "StripMall Strip mall - type 2 set electric EPD to 0.4 W/ft^2.",
               "StripMall Strip mall - type 2 had no ventilation specification, one has been created.",
               "StripMall Strip mall - type 2 set ventilation per area to 0.2325 cfm/ft^2.",
               "StripMall Strip mall - type 2 set occupancy schedule to RetailStripmall Type2_OCC_SCH.",
               "StripMall Strip mall - type 2 set occupant activity schedule to HotelSmall Activity_Sch.",
               "StripMall Strip mall - type 2 set lighting schedule to RetailStripmall Type2_LIGHT_SCH_2013.",
               "StripMall Strip mall - type 2 set electric equipment schedule to RetailStripmall Type2_EQUIP_SCH.",
               "StripMall Strip mall - type 2 set infiltration schedule to RetailStripmall Type2_Infil_SCH.",
               "Adding construction set: 90.1-2013-ASHRAE 169-2013-6A-StripMall--is_residentialNo",
               "Adding construction Typical Insulated Exterior Mass Floor R-19.61.",
               "Adding construction Typical Insulated Steel Framed Exterior Wall R-20.41.",
               "Adding construction Typical IEAD Roof R-31.25.",
               "Adding construction Typical Interior Floor.",
               "Adding construction Typical Interior Wall.",
               "Adding construction Typical Interior Ceiling.",
               "Adding construction Typical Insulated Carpeted 8in Slab Floor.",
               "Adding construction Typical Insulated Basement Mass Wall.",
               "Adding construction U 0.48 SHGC 0.40 Dbl Ref-D Clr 6mm/13mm.",
               "Adding construction Typical Insulated Metal Door R-2.0.",
               "Adding construction U 0.44 SHGC 0.26 Dbl Ref-B-H Clr 6mm/13mm Air.",
               "Adding construction Typical Overhead Door R-2.0.",
               "Adding construction Window_U_0.50_SHGC_0.40_Skylight_Frame_Width_0.430_in.",
               "Adding construction Typical Interior Window.",
               "Adding construction Typical Interior Door.",
               "Adding construction Typical Interior Partition.",
               "For StripMall Strip mall - type 1 A  - Story Ground, set infiltration rate to 0.112 cfm/ft2 exterior wall area (aka 1.0 cfm/ft2 @75Pa).",
               "For StripMall Strip mall - type 1 A end_a - Story Ground, set infiltration rate to 0.112 cfm/ft2 exterior wall area (aka 1.0 cfm/ft2 @75Pa).",
               "For StripMall Strip mall - type 1 B  - Story Ground, no exterior wall area was found, no infiltration will be added.",
               "For StripMall Strip mall - type 1 B end_a - Story Ground, set infiltration rate to 0.112 cfm/ft2 exterior wall area (aka 1.0 cfm/ft2 @75Pa).",
               "For StripMall Strip mall - type 1 C  - Story Ground, set infiltration rate to 0.112 cfm/ft2 exterior wall area (aka 1.0 cfm/ft2 @75Pa).",
               "For StripMall Strip mall - type 1 C end_a - Story Ground, set infiltration rate to 0.112 cfm/ft2 exterior wall area (aka 1.0 cfm/ft2 @75Pa).",
               "For StripMall Strip mall - type 2 A  - Story Ground, set infiltration rate to 0.112 cfm/ft2 exterior wall area (aka 1.0 cfm/ft2 @75Pa).",
               "For StripMall Strip mall - type 2 A  - Story Mid, set infiltration rate to 0.112 cfm/ft2 exterior wall area (aka 1.0 cfm/ft2 @75Pa).",
               "For StripMall Strip mall - type 2 A end_b - Story Ground, set infiltration rate to 0.112 cfm/ft2 exterior wall area (aka 1.0 cfm/ft2 @75Pa).",
               "For StripMall Strip mall - type 2 A end_b - Story Mid, set infiltration rate to 0.112 cfm/ft2 exterior wall area (aka 1.0 cfm/ft2 @75Pa).",
               "For StripMall Strip mall - type 2 B  - Story Ground, no exterior wall area was found, no infiltration will be added.",
               "For StripMall Strip mall - type 2 B  - Story Mid, no exterior wall area was found, no infiltration will be added.",
               "For StripMall Strip mall - type 2 B end_b - Story Ground, set infiltration rate to 0.112 cfm/ft2 exterior wall area (aka 1.0 cfm/ft2 @75Pa).",
               "For StripMall Strip mall - type 2 B end_b - Story Mid, set infiltration rate to 0.112 cfm/ft2 exterior wall area (aka 1.0 cfm/ft2 @75Pa).",
               "For StripMall Strip mall - type 2 C  - Story Ground, set infiltration rate to 0.112 cfm/ft2 exterior wall area (aka 1.0 cfm/ft2 @75Pa).",
               "For StripMall Strip mall - type 2 C  - Story Mid, set infiltration rate to 0.112 cfm/ft2 exterior wall area (aka 1.0 cfm/ft2 @75Pa).",
               "For StripMall Strip mall - type 2 C end_b - Story Ground, set infiltration rate to 0.112 cfm/ft2 exterior wall area (aka 1.0 cfm/ft2 @75Pa).",
               "For StripMall Strip mall - type 2 C end_b - Story Mid, set infiltration rate to 0.112 cfm/ft2 exterior wall area (aka 1.0 cfm/ft2 @75Pa).",
               "For StripMall Strip mall - type 3 A  - Story Mid, set infiltration rate to 0.112 cfm/ft2 exterior wall area (aka 1.0 cfm/ft2 @75Pa).",
               "For StripMall Strip mall - type 3 A  - Story Top, set infiltration rate to 0.112 cfm/ft2 exterior wall area (aka 1.0 cfm/ft2 @75Pa).",
               "For StripMall Strip mall - type 3 A end_a - Story Mid, set infiltration rate to 0.112 cfm/ft2 exterior wall area (aka 1.0 cfm/ft2 @75Pa).",
               "For StripMall Strip mall - type 3 A end_a - Story Top, set infiltration rate to 0.112 cfm/ft2 exterior wall area (aka 1.0 cfm/ft2 @75Pa).",
               "For StripMall Strip mall - type 3 A end_b - Story Top, set infiltration rate to 0.112 cfm/ft2 exterior wall area (aka 1.0 cfm/ft2 @75Pa).",
               "For StripMall Strip mall - type 3 B  - Story Mid, no exterior wall area was found, no infiltration will be added.",
               "For StripMall Strip mall - type 3 B  - Story Top, no exterior wall area was found, no infiltration will be added.",
               "For StripMall Strip mall - type 3 B end_a - Story Mid, set infiltration rate to 0.112 cfm/ft2 exterior wall area (aka 1.0 cfm/ft2 @75Pa).",
               "For StripMall Strip mall - type 3 B end_a - Story Top, set infiltration rate to 0.112 cfm/ft2 exterior wall area (aka 1.0 cfm/ft2 @75Pa).",
               "For StripMall Strip mall - type 3 B end_b - Story Top, set infiltration rate to 0.112 cfm/ft2 exterior wall area (aka 1.0 cfm/ft2 @75Pa).",
               "For StripMall Strip mall - type 3 C  - Story Mid, set infiltration rate to 0.112 cfm/ft2 exterior wall area (aka 1.0 cfm/ft2 @75Pa).",
               "For StripMall Strip mall - type 3 C  - Story Top, set infiltration rate to 0.112 cfm/ft2 exterior wall area (aka 1.0 cfm/ft2 @75Pa).",
               "For StripMall Strip mall - type 3 C end_a - Story Mid, set infiltration rate to 0.112 cfm/ft2 exterior wall area (aka 1.0 cfm/ft2 @75Pa).",
               "For StripMall Strip mall - type 3 C end_a - Story Top, set infiltration rate to 0.112 cfm/ft2 exterior wall area (aka 1.0 cfm/ft2 @75Pa).",
               "For StripMall Strip mall - type 3 C end_b - Story Top, set infiltration rate to 0.112 cfm/ft2 exterior wall area (aka 1.0 cfm/ft2 @75Pa).",
               "The building has fewer than 6 effective stories; assuming Hydraulic elevators.",
               "For StripMall Strip mall - type 1 - 90.1-2013, floor area = 93602 ft^2.",
               "For StripMall Strip mall - type 1 - 90.1-2013, number of spaces = 6.",
               "For StripMall Strip mall - type 1 - 90.1-2013, number of units = 41.60099999999996.",
               "For StripMall Strip mall - type 1 - 90.1-2013, number of people = 749.",
               "For StripMall Strip mall - type 2 - 90.1-2013, floor area = 93602 ft^2.",
               "For StripMall Strip mall - type 2 - 90.1-2013, number of spaces = 12.",
               "For StripMall Strip mall - type 2 - 90.1-2013, number of units = 41.601000000000184.",
               "For StripMall Strip mall - type 2 - 90.1-2013, number of people = 749.",
               "For StripMall Strip mall - type 3 - 90.1-2013, floor area = 187205 ft^2.",
               "For StripMall Strip mall - type 3 - 90.1-2013, number of spaces = 15.",
               "For StripMall Strip mall - type 3 - 90.1-2013, number of units = 83.20200000000041.",
               "For StripMall Strip mall - type 3 - 90.1-2013, number of people = 1498.",
               "For StripMall Strip mall - type 1 - 90.1-2013, adding 2.1 passenger elevators at 1 per 45000.0 ft^2.",
               "Unexpected key, can't calculate number of freight elevators from template.",
               "For StripMall Strip mall - type 2 - 90.1-2013, adding 2.1 passenger elevators at 1 per 45000.0 ft^2.",
               "Unexpected key, can't calculate number of freight elevators from template.",
               "For StripMall Strip mall - type 3 - 90.1-2013, adding 4.2 passenger elevators at 1 per 45000.0 ft^2.",
               "Unexpected key, can't calculate number of freight elevators from template.",
               "No additional passenger elevators added to model.",
               "Adding 9.0 Hydraulic elevators to the model in StripMall Strip mall - type 1 B  - Story Ground.",
               "For StripMall Strip mall - type 1 - 90.1-2013, floor area = 93602 ft^2.",
               "For StripMall Strip mall - type 1 - 90.1-2013, number of spaces = 6.",
               "For StripMall Strip mall - type 1 - 90.1-2013, number of units = 41.60099999999996.",
               "For StripMall Strip mall - type 1 - 90.1-2013, number of people = 749.",
               "For StripMall Strip mall - type 2 - 90.1-2013, floor area = 93602 ft^2.",
               "For StripMall Strip mall - type 2 - 90.1-2013, number of spaces = 12.",
               "For StripMall Strip mall - type 2 - 90.1-2013, number of units = 41.601000000000184.",
               "For StripMall Strip mall - type 2 - 90.1-2013, number of people = 749.",
               "For StripMall Strip mall - type 3 - 90.1-2013, floor area = 187205 ft^2.",
               "For StripMall Strip mall - type 3 - 90.1-2013, number of spaces = 15.",
               "For StripMall Strip mall - type 3 - 90.1-2013, number of units = 83.20200000000041.",
               "For StripMall Strip mall - type 3 - 90.1-2013, number of people = 1498.",
               "Facade and Landscape exterior lights shut off from {:hr=>24, :min=>0} to {:hr=>6, :min=>0}",
               "Non Facade and Landscape lights reduce by 30.0 % from {:hr=>24, :min=>0} to {:hr=>6, :min=>0}",
               "Added 0.1 W/ft^2 of lighting for 705282.0697674443 ft^2 of parking area.",
               "Added 0.15 W/ft^2 of lighting for 17663.73403332378 ft^2 of building facade area.",
               "Added 30.0 W/ft of lighting for 599.054400000002 ft of main entry length.",
               "Added 20.0 W/ft of lighting for 329.4799200000011 ft of other doors.",
               "For StripMall Strip mall - type 1 - 90.1-2013, floor area = 93602 ft^2.",
               "For StripMall Strip mall - type 1 - 90.1-2013, number of spaces = 6.",
               "For StripMall Strip mall - type 1 - 90.1-2013, number of units = 41.60099999999996.",
               "For StripMall Strip mall - type 1 - 90.1-2013, number of people = 749.",
               "For StripMall Strip mall - type 2 - 90.1-2013, floor area = 93602 ft^2.",
               "For StripMall Strip mall - type 2 - 90.1-2013, number of spaces = 12.",
               "For StripMall Strip mall - type 2 - 90.1-2013, number of units = 41.601000000000184.",
               "For StripMall Strip mall - type 2 - 90.1-2013, number of people = 749.",
               "For StripMall Strip mall - type 3 - 90.1-2013, floor area = 187205 ft^2.",
               "For StripMall Strip mall - type 3 - 90.1-2013, number of spaces = 15.",
               "For StripMall Strip mall - type 3 - 90.1-2013, number of units = 83.20200000000041.",
               "For StripMall Strip mall - type 3 - 90.1-2013, number of people = 1498.",
               "Added StripMall Strip mall - type 1 - 90.1-2013 42 units Service Water Use 1.26gpm at 140F.",
               "Added water heater called 42X 50gal NaturalGas Water Heater - 20kBtu/hr",
               "Pipe length 20ft. For non-circulating systems, assume water heater is close to point of use.",
               "Piping length has been multiplied by 42X because 42X 50gal NaturalGas Water Heater - 20kBtu/hr represents 42 pieces of equipment.",
               "Added 840ft of Uninsulated copper pipe 0.75in type L losing heat to 70F air to StripMall Strip mall - type 1 - 90.1-2013 Service Water Loop.",
               "Added non-circulating SWH loop called StripMall Strip mall - type 1 - 90.1-2013 Service Water Loop",
               "Added StripMall Strip mall - type 2 - 90.1-2013 42 units Service Water Use 1.26gpm at 140F.",
               "Added water heater called 42X 50gal NaturalGas Water Heater - 20kBtu/hr 1",
               "Pipe length 20ft. For non-circulating systems, assume water heater is close to point of use.",
               "Piping length has been multiplied by 42X because 42X 50gal NaturalGas Water Heater - 20kBtu/hr 1 represents 42 pieces of equipment.",
               "Added 840ft of Uninsulated copper pipe 0.75in type L 1 losing heat to 70F air to StripMall Strip mall - type 2 - 90.1-2013 Service Water Loop.",
               "Added non-circulating SWH loop called StripMall Strip mall - type 2 - 90.1-2013 Service Water Loop",
               "Added StripMall Strip mall - type 3 - 90.1-2013 83 units Service Water Use 2.49gpm at 140F.",
               "Added water heater called 83X 50gal NaturalGas Water Heater - 20kBtu/hr",
               "Pipe length 20ft. For non-circulating systems, assume water heater is close to point of use.",
               "Piping length has been multiplied by 83X because 83X 50gal NaturalGas Water Heater - 20kBtu/hr represents 83 pieces of equipment.",
               "Added 1660ft of Uninsulated copper pipe 0.75in type L 2 losing heat to 70F air to StripMall Strip mall - type 3 - 90.1-2013 Service Water Loop.",
               "Added non-circulating SWH loop called StripMall Strip mall - type 3 - 90.1-2013 Service Water Loop",
               "Started adding daylighting controls.",
               "For StripMall Strip mall - type 1 A end_a - Story Ground, secondary sidelighting control not required because less than 300W of lighting are present in the combined primary and secondary daylighted areas per 9.4.1.1(e).",
               "For StripMall Strip mall - type 1 B  - Story Ground, daylighting control not applicable because no exterior fenestration is present.",
               "For StripMall Strip mall - type 1 C end_a - Story Ground, secondary sidelighting control not required because less than 300W of lighting are present in the combined primary and secondary daylighted areas per 9.4.1.1(e).",
               "For StripMall Strip mall - type 2 A end_b - Story Ground, primary sidelighting control not required because less than 150W of lighting are present in the primary daylighted area per 9.4.1.1(e).",
               "For StripMall Strip mall - type 2 A end_b - Story Ground, secondary sidelighting control not required because less than 300W of lighting are present in the combined primary and secondary daylighted areas per 9.4.1.1(e).",
               "For StripMall Strip mall - type 2 A end_b - Story Mid, primary sidelighting control not required because less than 150W of lighting are present in the primary daylighted area per 9.4.1.1(e).",
               "For StripMall Strip mall - type 2 A end_b - Story Mid, secondary sidelighting control not required because less than 300W of lighting are present in the combined primary and secondary daylighted areas per 9.4.1.1(e).",
               "For StripMall Strip mall - type 2 B  - Story Ground, daylighting control not applicable because no exterior fenestration is present.",
               "For StripMall Strip mall - type 2 B  - Story Mid, daylighting control not applicable because no exterior fenestration is present.",
               "For StripMall Strip mall - type 2 C end_b - Story Ground, primary sidelighting control not required because less than 150W of lighting are present in the primary daylighted area per 9.4.1.1(e).",
               "For StripMall Strip mall - type 2 C end_b - Story Ground, secondary sidelighting control not required because less than 300W of lighting are present in the combined primary and secondary daylighted areas per 9.4.1.1(e).",
               "For StripMall Strip mall - type 2 C end_b - Story Mid, primary sidelighting control not required because less than 150W of lighting are present in the primary daylighted area per 9.4.1.1(e).",
               "For StripMall Strip mall - type 2 C end_b - Story Mid, secondary sidelighting control not required because less than 300W of lighting are present in the combined primary and secondary daylighted areas per 9.4.1.1(e).",
               "For StripMall Strip mall - type 3 A end_a - Story Mid, primary sidelighting control not required because less than 150W of lighting are present in the primary daylighted area per 9.4.1.1(e).",
               "For StripMall Strip mall - type 3 A end_a - Story Mid, secondary sidelighting control not required because less than 300W of lighting are present in the combined primary and secondary daylighted areas per 9.4.1.1(e).",
               "For StripMall Strip mall - type 3 A end_a - Story Top, primary sidelighting control not required because less than 150W of lighting are present in the primary daylighted area per 9.4.1.1(e).",
               "For StripMall Strip mall - type 3 A end_a - Story Top, secondary sidelighting control not required because less than 300W of lighting are present in the combined primary and secondary daylighted areas per 9.4.1.1(e).",
               "For StripMall Strip mall - type 3 A end_b - Story Top, primary sidelighting control not required because less than 150W of lighting are present in the primary daylighted area per 9.4.1.1(e).",
               "For StripMall Strip mall - type 3 A end_b - Story Top, secondary sidelighting control not required because less than 300W of lighting are present in the combined primary and secondary daylighted areas per 9.4.1.1(e).",
               "For StripMall Strip mall - type 3 B  - Story Mid, daylighting control not applicable because no exterior fenestration is present.",
               "For StripMall Strip mall - type 3 B  - Story Top, daylighting control not applicable because no exterior fenestration is present.",
               "For StripMall Strip mall - type 3 C end_a - Story Mid, primary sidelighting control not required because less than 150W of lighting are present in the primary daylighted area per 9.4.1.1(e).",
               "For StripMall Strip mall - type 3 C end_a - Story Mid, secondary sidelighting control not required because less than 300W of lighting are present in the combined primary and secondary daylighted areas per 9.4.1.1(e).",
               "For StripMall Strip mall - type 3 C end_a - Story Top, primary sidelighting control not required because less than 150W of lighting are present in the primary daylighted area per 9.4.1.1(e).",
               "For StripMall Strip mall - type 3 C end_a - Story Top, secondary sidelighting control not required because less than 300W of lighting are present in the combined primary and secondary daylighted areas per 9.4.1.1(e).",
               "For StripMall Strip mall - type 3 C end_b - Story Top, primary sidelighting control not required because less than 150W of lighting are present in the primary daylighted area per 9.4.1.1(e).",
               "For StripMall Strip mall - type 3 C end_b - Story Top, secondary sidelighting control not required because less than 300W of lighting are present in the combined primary and secondary daylighted areas per 9.4.1.1(e).",
               "Finished adding daylighting controls.",
               "Finished adding internal mass",
               "StripMall Strip mall - type 3 - 90.1-2013 set heating setpoint schedule to RetailStripmall Type3_HTGSETP_SCH_NO_OPTIMUM.",
               "StripMall Strip mall - type 3 - 90.1-2013 set cooling setpoint schedule to RetailStripmall Type3_CLGSETP_SCH_NO_OPTIMUM.",
               "StripMall Strip mall - type 1 - 90.1-2013 set heating setpoint schedule to RetailStripmall Type1_HTGSETP_SCH_NO_OPTIMUM.",
               "StripMall Strip mall - type 1 - 90.1-2013 set cooling setpoint schedule to RetailStripmall Type1_CLGSETP_SCH_NO_OPTIMUM.",
               "StripMall Strip mall - type 2 - 90.1-2013 set heating setpoint schedule to RetailStripmall Type2_HTGSETP_SCH_NO_OPTIMUM.",
               "StripMall Strip mall - type 2 - 90.1-2013 set cooling setpoint schedule to RetailStripmall Type2_CLGSETP_SCH_NO_OPTIMUM.",
               "Added internal mass 'StripMall Strip mall - type 1 A end_a - Story Ground Mass' to space 'StripMall Strip mall - type 1 A end_a - Story Ground'.",
               "Added internal mass 'StripMall Strip mall - type 2 C  - Story Ground Mass' to space 'StripMall Strip mall - type 2 C  - Story Ground'.",
               "Added internal mass 'StripMall Strip mall - type 2 A  - Story Ground Mass' to space 'StripMall Strip mall - type 2 A  - Story Ground'.",
               "Added internal mass 'StripMall Strip mall - type 1 B end_a - Story Ground Mass' to space 'StripMall Strip mall - type 1 B end_a - Story Ground'.",
               "Added internal mass 'StripMall Strip mall - type 1 C  - Story Ground Mass' to space 'StripMall Strip mall - type 1 C  - Story Ground'.",
               "Added internal mass 'StripMall Strip mall - type 1 A  - Story Ground Mass' to space 'StripMall Strip mall - type 1 A  - Story Ground'.",
               "Added internal mass 'StripMall Strip mall - type 1 C end_a - Story Ground Mass' to space 'StripMall Strip mall - type 1 C end_a - Story Ground'.",
               "Added internal mass 'StripMall Strip mall - type 2 C end_b - Story Ground Mass' to space 'StripMall Strip mall - type 2 C end_b - Story Ground'.",
               "Added internal mass 'StripMall Strip mall - type 2 A end_b - Story Ground Mass' to space 'StripMall Strip mall - type 2 A end_b - Story Ground'.",
               "Added internal mass 'StripMall Strip mall - type 1 B  - Story Ground Mass' to space 'StripMall Strip mall - type 1 B  - Story Ground'.",
               "Added internal mass 'StripMall Strip mall - type 3 A end_b - Story Top Mass' to space 'StripMall Strip mall - type 3 A end_b - Story Top'.",
               "Added internal mass 'StripMall Strip mall - type 2 B  - Story Ground Mass' to space 'StripMall Strip mall - type 2 B  - Story Ground'.",
               "Added internal mass 'StripMall Strip mall - type 2 B end_b - Story Ground Mass' to space 'StripMall Strip mall - type 2 B end_b - Story Ground'.",
               "Added internal mass 'StripMall Strip mall - type 2 A  - Story Mid Mass' to space 'StripMall Strip mall - type 2 A  - Story Mid'.",
               "Added internal mass 'StripMall Strip mall - type 3 A end_a - Story Mid Mass' to space 'StripMall Strip mall - type 3 A end_a - Story Mid'.",
               "Added internal mass 'StripMall Strip mall - type 3 B end_a - Story Mid Mass' to space 'StripMall Strip mall - type 3 B end_a - Story Mid'.",
               "Added internal mass 'StripMall Strip mall - type 3 C end_a - Story Mid Mass' to space 'StripMall Strip mall - type 3 C end_a - Story Mid'.",
               "Added internal mass 'StripMall Strip mall - type 3 B  - Story Mid Mass' to space 'StripMall Strip mall - type 3 B  - Story Mid'.",
               "Added internal mass 'StripMall Strip mall - type 3 A  - Story Mid Mass' to space 'StripMall Strip mall - type 3 A  - Story Mid'.",
               "Added internal mass 'StripMall Strip mall - type 3 C  - Story Mid Mass' to space 'StripMall Strip mall - type 3 C  - Story Mid'.",
               "Added internal mass 'StripMall Strip mall - type 2 B  - Story Mid Mass' to space 'StripMall Strip mall - type 2 B  - Story Mid'.",
               "Added internal mass 'StripMall Strip mall - type 2 C  - Story Mid Mass' to space 'StripMall Strip mall - type 2 C  - Story Mid'.",
               "Added internal mass 'StripMall Strip mall - type 2 A end_b - Story Mid Mass' to space 'StripMall Strip mall - type 2 A end_b - Story Mid'.",
               "Added internal mass 'StripMall Strip mall - type 2 B end_b - Story Mid Mass' to space 'StripMall Strip mall - type 2 B end_b - Story Mid'.",
               "Added internal mass 'StripMall Strip mall - type 3 C end_a - Story Top Mass' to space 'StripMall Strip mall - type 3 C end_a - Story Top'.",
               "Added internal mass 'StripMall Strip mall - type 2 C end_b - Story Mid Mass' to space 'StripMall Strip mall - type 2 C end_b - Story Mid'.",
               "Added internal mass 'StripMall Strip mall - type 3 A end_a - Story Top Mass' to space 'StripMall Strip mall - type 3 A end_a - Story Top'.",
               "Added internal mass 'StripMall Strip mall - type 3 B end_a - Story Top Mass' to space 'StripMall Strip mall - type 3 B end_a - Story Top'.",
               "Added internal mass 'StripMall Strip mall - type 3 A  - Story Top Mass' to space 'StripMall Strip mall - type 3 A  - Story Top'.",
               "Added internal mass 'StripMall Strip mall - type 3 B  - Story Top Mass' to space 'StripMall Strip mall - type 3 B  - Story Top'.",
               "Added internal mass 'StripMall Strip mall - type 3 C end_b - Story Top Mass' to space 'StripMall Strip mall - type 3 C end_b - Story Top'.",
               "Added internal mass 'StripMall Strip mall - type 3 C  - Story Top Mass' to space 'StripMall Strip mall - type 3 C  - Story Top'.",
               "Added internal mass 'StripMall Strip mall - type 3 B end_b - Story Top Mass' to space 'StripMall Strip mall - type 3 B end_b - Story Top'.",
               "Finished adding internal mass"
            ],
            "step_initial_condition" : "The building started with 567 objects.",
            "step_result" : "Success",
            "step_values" : [
               {
                  "name" : "template",
                  "value" : "90.1-2013"
               },
               {
                  "name" : "system_type",
                  "value" : "Inferred"
               },
               {
                  "name" : "hvac_delivery_type",
                  "value" : "Forced Air"
               },
               {
                  "name" : "htg_src",
                  "value" : "NaturalGas"
               },
               {
                  "name" : "clg_src",
                  "value" : "Electricity"
               },
               {
                  "name" : "swh_src",
                  "value" : "Inferred"
               },
               {
                  "name" : "kitchen_makeup",
                  "value" : "Adjacent"
               },
               {
                  "name" : "exterior_lighting_zone",
                  "value" : "3 - All Other Areas"
               },
               {
                  "name" : "add_constructions",
                  "value" : true
               },
               {
                  "name" : "add_space_type_loads",
                  "value" : true
               },
               {
                  "name" : "add_elevators",
                  "value" : true
               },
               {
                  "name" : "add_internal_mass",
                  "value" : true
               },
               {
                  "name" : "add_exterior_lights",
                  "value" : true
               },
               {
                  "name" : "onsite_parking_fraction",
                  "value" : 1
               },
               {
                  "name" : "add_exhaust",
                  "value" : true
               },
               {
                  "name" : "add_swh",
                  "value" : true
               },
               {
                  "name" : "add_thermostat",
                  "value" : true
               },
               {
                  "name" : "add_hvac",
                  "value" : false
               },
               {
                  "name" : "add_refrigeration",
                  "value" : false
               },
               {
                  "name" : "modify_wkdy_op_hrs",
                  "value" : false
               },
               {
                  "name" : "wkdy_op_hrs_start_time",
                  "value" : 8
               },
               {
                  "name" : "wkdy_op_hrs_duration",
                  "value" : 8
               },
               {
                  "name" : "modify_wknd_op_hrs",
                  "value" : false
               },
               {
                  "name" : "wknd_op_hrs_start_time",
                  "value" : 8
               },
               {
                  "name" : "wknd_op_hrs_duration",
                  "value" : 8
               },
               {
                  "name" : "unmet_hours_tolerance",
                  "value" : 1
               },
               {
                  "name" : "remove_objects",
                  "value" : true
               },
               {
                  "name" : "use_upstream_args",
                  "value" : true
               },
               {
                  "name" : "enable_dst",
                  "value" : true
               },
               {
                  "name" : "climate_zone",
                  "value" : "Lookup From Model"
               }
            ],
            "step_warnings" : [
               "[openstudio.standards.ConstructionBase] Can only set the u-value of opaque constructions or simple glazing. U 0.48 SHGC 0.40 Dbl Ref-D Clr 6mm/13mm is not opaque or simple glazing.",
               "[openstudio.standards.ConstructionBase] Can only set the u-value of opaque constructions or simple glazing. U 0.44 SHGC 0.26 Dbl Ref-B-H Clr 6mm/13mm Air is not opaque or simple glazing.",
               "[openstudio.standards.ConstructionBase] Can only set the u-value of opaque constructions or simple glazing. Window_U_0.50_SHGC_0.40_Skylight_Frame_Width_0.430_in is not opaque or simple glazing.",
               "[openstudio.weather.Model] Could not find ground temperatures; will use generic temperatures, which will skew results.",
               "[openstudio.model.Model] In model_add_typical, num_water_heaters = 42",
               "[openstudio.model.Model] In model_add_typical, num_water_heaters = 42",
               "[openstudio.model.Model] In model_add_typical, num_water_heaters = 83"
            ]
         }
      },
      {
         "arguments" : {
            "__SKIP__" : false,
            "blend_method" : "Building Story"
         },
         "measure_dir_name" : "blended_space_type_from_model",
         "result" : {
            "completed_at" : "20200326T193424Z",
            "measure_class_name" : "BlendedSpaceTypeFromModel",
            "measure_display_name" : "Blended Space Type from Model",
            "measure_name" : "blended_space_type_from_model",
            "measure_taxonomy" : "Whole Building.Space Types",
            "measure_type" : "ModelMeasure",
            "measure_uid" : "667c2f1f-0927-4dbd-a7be-1087b5c15181",
            "measure_version_id" : "291ff117-9c95-4d04-b17b-edf8b051678d",
            "measure_version_modified" : "20200229T024055Z",
            "measure_xml_checksum" : "28AD5222",
            "started_at" : "20200326T193423Z",
            "stderr" : "",
            "stdout" : "",
            "step_errors" : [],
            "step_files" : [],
            "step_final_condition" : "The final building uses 3 spaces types.",
            "step_info" : [
               "Story Ground area is 124,803.00 ft^2, number of people is 998.",
               "Story Ground accounts for 2 space types.",
               "Blending space type StripMall Strip mall - type 2 - 90.1-2013 Story Ground. Floor area ratio is 0.25. People ratio is 0.25",
               "Blending space type StripMall Strip mall - type 1 - 90.1-2013 Story Ground. Floor area ratio is 0.75. People ratio is 0.75",
               "Blending space StripMall Strip mall - type 2 C  - Story Ground. Floor area ratio is 0.019. People ratio is 0.019",
               "Blending space StripMall Strip mall - type 2 A  - Story Ground. Floor area ratio is 0.019. People ratio is 0.019",
               "Blending space StripMall Strip mall - type 2 C end_b - Story Ground. Floor area ratio is 0.002. People ratio is 0.002",
               "Blending space StripMall Strip mall - type 2 A end_b - Story Ground. Floor area ratio is 0.002. People ratio is 0.002",
               "Blending space StripMall Strip mall - type 2 B  - Story Ground. Floor area ratio is 0.19. People ratio is 0.19",
               "Blending space StripMall Strip mall - type 2 B end_b - Story Ground. Floor area ratio is 0.018. People ratio is 0.018",
               "Blending space StripMall Strip mall - type 1 A end_a - Story Ground. Floor area ratio is 0.002. People ratio is 0.002",
               "Blending space StripMall Strip mall - type 1 B end_a - Story Ground. Floor area ratio is 0.018. People ratio is 0.018",
               "Blending space StripMall Strip mall - type 1 C  - Story Ground. Floor area ratio is 0.062. People ratio is 0.062",
               "Blending space StripMall Strip mall - type 1 A  - Story Ground. Floor area ratio is 0.062. People ratio is 0.062",
               "Blending space StripMall Strip mall - type 1 C end_a - Story Ground. Floor area ratio is 0.002. People ratio is 0.002",
               "Blending space StripMall Strip mall - type 1 B  - Story Ground. Floor area ratio is 0.605. People ratio is 0.605",
               "Story Mid area is 124,803.00 ft^2, number of people is 998.",
               "Story Mid accounts for 2 space types.",
               "Blending space type StripMall Strip mall - type 3 - 90.1-2013 Story Mid. Floor area ratio is 0.5. People ratio is 0.5",
[...]
                  "value" : 1
               },
               {
                  "name" : "add_exhaust",
                  "value" : false
               },
               {
                  "name" : "add_swh",
                  "value" : false
               },
               {
                  "name" : "add_thermostat",
                  "value" : true
               },
               {
                  "name" : "add_hvac",
                  "value" : true
               },
               {
                  "name" : "add_refrigeration",
                  "value" : false
               },
               {
                  "name" : "modify_wkdy_op_hrs",
                  "value" : false
               },
               {
                  "name" : "wkdy_op_hrs_start_time",
                  "value" : 8
               },
               {
                  "name" : "wkdy_op_hrs_duration",
                  "value" : 8
               },
               {
                  "name" : "modify_wknd_op_hrs",
                  "value" : false
               },
               {
                  "name" : "wknd_op_hrs_start_time",
                  "value" : 8
               },
               {
                  "name" : "wknd_op_hrs_duration",
                  "value" : 8
               },
               {
                  "name" : "unmet_hours_tolerance",
                  "value" : 1
               },
               {
                  "name" : "remove_objects",
                  "value" : false
               },
               {
                  "name" : "use_upstream_args",
                  "value" : false
               },
               {
                  "name" : "enable_dst",
                  "value" : true
               },
               {
                  "name" : "climate_zone",
                  "value" : "Lookup From Model"
               }
            ],
            "step_warnings" : [
               "[openstudio.standards.AirLoopHVAC] Cannot find economizer limits for 90.1-2013, , assuming no economizer required.",
               "[openstudio.standards.AirLoopHVAC] Cannot find economizer limits for 90.1-2013, , assuming no economizer required.",
               "[openstudio.standards.AirLoopHVAC] Cannot find economizer limits for 90.1-2013, , assuming no economizer required."
            ]
         }
      },
      {
         "arguments" : {
            "__SKIP__" : false,
            "airVelocitySchedule" : "Air Velocity Schedule",
            "clothingSchedule" : "Clothing Schedule",
            "comfortWarnings" : true,
            "workEfficiencySchedule" : "Work Efficiency Schedule"
         },
         "measure_dir_name" : "PredictedMeanVote",
         "result" : {
            "completed_at" : "20200326T193443Z",
            "measure_class_name" : "PredictedMeanVote",
            "measure_display_name" : "Predicted Mean Vote",
            "measure_name" : "predicted_mean_vote",
            "measure_taxonomy" : "Reporting.QAQC",
            "measure_type" : "ModelMeasure",
            "measure_uid" : "11cd3144-dac6-4f64-90e4-b8804c6bfc5e",
            "measure_version_id" : "3351a0f8-9ffc-4dbd-a36b-873d8f45851b",
            "measure_version_modified" : "20200228T204851Z",
            "measure_xml_checksum" : "0CA4D54C",
            "started_at" : "20200326T193443Z",
            "stderr" : "",
            "stdout" : "",
            "step_errors" : [],
            "step_files" : [],
            "step_final_condition" : "3 people definitions and 5 people instances were altered.",
            "step_info" : [
               "Editing 'StripMall Strip mall - type 1 People Definition'",
               "Editing 'StripMall Strip mall - type 2 People Definition'",
               "Editing 'StripMall Strip mall - type 3 People Definition'",
               "Assigning Schedules for 'StripMall Strip mall - type 3 People 2'",
               "Assigning Schedules for 'StripMall Strip mall - type 1 People 1'",
               "Assigning Schedules for 'StripMall Strip mall - type 2 People 1'",
               "Assigning Schedules for 'StripMall Strip mall - type 2 People 2'",
               "Assigning Schedules for 'StripMall Strip mall - type 3 People 1'",
               "Adding zone output variables for Fanger PMV, Fanger PPD, and ASHRAE 55"
            ],
            "step_initial_condition" : "The building started with 3 people definitions.",
            "step_result" : "Success",
            "step_values" : [
               {
                  "name" : "comfortWarnings",
                  "value" : true
               },
               {
                  "name" : "meanRadiantCalcType",
                  "value" : "ZoneAveraged"
               },
               {
                  "name" : "workEfficiencySchedule",
                  "value" : "{7026a45b-6cd5-42c6-a0c7-482042253091}"
               },
               {
                  "name" : "clothingSchedule",
                  "value" : "{4f96b530-dd13-4138-8946-d45866391625}"
               },
               {
                  "name" : "airVelocitySchedule",
                  "value" : "{f9505605-da25-40e2-bb8c-89442f69a2b6}"
               },
               {
                  "name" : "reporting_frequency",
                  "value" : "Timestep"
               }
            ],
            "step_warnings" : []
         }
      },
      {
         "arguments" : {
            "__SKIP__" : true,
            "r_value" : 10
         },
         "measure_dir_name" : "IncreaseInsulationRValueForExteriorWalls",
         "result" : {
            "completed_at" : "20200326T193443Z",
            "measure_class_name" : "IncreaseInsulationRValueForExteriorWalls",
            "measure_display_name" : "Increase R-value of Insulation for Exterior Walls to a Specific Value",
            "measure_name" : "increase_insulation_r_value_for_exterior_walls",
            "measure_taxonomy" : "Envelope.Opaque",
            "measure_type" : "ModelMeasure",
            "measure_uid" : "3fdf9c39-d305-449b-a4b5-077166af5a67",
            "measure_version_id" : "b55a41da-39d3-45b1-a9d0-605b292667fe",
            "measure_version_modified" : "20200229T024316Z",
            "measure_xml_checksum" : "0F858D9E",
            "started_at" : "20200326T193443Z",
            "stderr" : "",
            "stdout" : "",
            "step_errors" : [],
            "step_files" : [],
            "step_info" : [],
            "step_result" : "Skip",
            "step_values" : [],
            "step_warnings" : []
         }
      },
      {
         "arguments" : {
            "__SKIP__" : true,
            "elecequip_power_reduction_percent" : 20
         },
         "measure_dir_name" : "ReduceElectricEquipmentLoadsByPercentage",
         "result" : {
            "completed_at" : "20200326T193443Z",
            "measure_class_name" : "ReduceElectricEquipmentLoadsByPercentage",
            "measure_display_name" : "Reduce Electric Equipment Loads by Percentage",
            "measure_name" : "reduce_electric_equipment_loads_by_percentage",
            "measure_taxonomy" : "Equipment.Electric Equipment",
            "measure_type" : "ModelMeasure",
            "measure_uid" : "0902e302-70db-4339-99b0-17f08bc93629",
            "measure_version_id" : "3edc28aa-ab1d-4495-affa-d8e5873431b1",
            "measure_version_modified" : "20200229T024319Z",
            "measure_xml_checksum" : "F9A5B8F0",
            "started_at" : "20200326T193443Z",
            "stderr" : "",
            "stdout" : "",
            "step_errors" : [],
            "step_files" : [],
            "step_info" : [],
            "step_result" : "Skip",
            "step_values" : [],
            "step_warnings" : []
         }
      },
      {
         "arguments" : {
            "__SKIP__" : true,
            "lighting_power_reduction_percent" : 30
         },
         "measure_dir_name" : "ReduceLightingLoadsByPercentage",
         "result" : {
            "completed_at" : "20200326T193443Z",
            "measure_class_name" : "ReduceLightingLoadsByPercentage",
            "measure_display_name" : "Reduce Lighting Loads by Percentage",
            "measure_name" : "reduce_lighting_loads_by_percentage",
            "measure_taxonomy" : "Electric Lighting.Lighting Equipment",
            "measure_type" : "ModelMeasure",
            "measure_uid" : "791f3404-a28b-4a80-ba3f-e15b339e39ea",
            "measure_version_id" : "01e31b73-acc4-47cd-b6cb-8c54238964fc",
            "measure_version_modified" : "20200229T024320Z",
            "measure_xml_checksum" : "293730A7",
            "started_at" : "20200326T193443Z",
            "stderr" : "",
            "stdout" : "",
            "step_errors" : [],
            "step_files" : [],
            "step_info" : [],
            "step_result" : "Skip",
            "step_values" : [],
            "step_warnings" : []
         }
      },
      {
         "arguments" : {
            "feature_id" : "12",
            "feature_name" : "Mall 1",
            "feature_type" : "Building"
         },
         "measure_dir_name" : "default_feature_reports",
         "result" : {
            "completed_at" : "20200326T193607Z",
            "measure_class_name" : "DefaultFeatureReports",
            "measure_display_name" : "DefaultFeatureReports",
            "measure_name" : "default_feature_reports",
            "measure_taxonomy" : "Reporting.QAQC",
            "measure_type" : "ReportingMeasure",
            "measure_uid" : "9ee3135a-8070-4408-bfa1-b75fecf9dd4f",
            "measure_version_id" : "607df4a0-d1ff-4c14-8d2f-93cde078dc47",
            "measure_version_modified" : "20200308T020104Z",
            "measure_xml_checksum" : "FB304155",
            "started_at" : "20200326T193553Z",
            "stderr" : "",
            "stdout" : "",
            "step_errors" : [],
            "step_files" : [
               "C:/urbanopt-example-reopt-project/run/baseline_scenario/12/011_default_feature_reports/default_feature_reports.csv",
               "C:/urbanopt-example-reopt-project/run/baseline_scenario/12/011_default_feature_reports/default_feature_reports.json"
            ],
            "step_final_condition" : "Default Feature Reports generated successfully.",
            "step_info" : [
               "All timeseries: [\"Electricity:Facility\", \"ElectricityProduced:Facility\", \"Gas:Facility\", \"DistrictCooling:Facility\", \"DistrictHeating:Facility\", \"District Cooling Chilled Water Rate\", \"District Cooling Mass Flow Rate\", \"District Cooling Inlet Temperature\", \"District Cooling Outlet Temperature\", \"District Heating Hot Water Rate\", \"District Heating Mass Flow Rate\", \"District Heating Inlet Temperature\", \"District Heating Outlet Temperature\", \"Zone Thermal Comfort Fanger Model PMV\", \"Zone Thermal Comfort Fanger Model PPD\", \"Net Electric Energy\", \"Electricity:Facility Power\", \"ElectricityProduced:Facility Power\", \"Electricity:Facility Apparent Power\", \"ElectricityProduced:Facility Apparent Power\", \"Net Power\", \"Net Apparent Power\"]",
               "TIMESERIES: Electricity:Facility",
               "KEY VALUES: [\"\"]",
               "!! TIMESERIES NAME: Electricity:Facility AND key_value: ",
               "First timeseries",
               "TIMESERIES: ElectricityProduced:Facility",
               "KEY VALUES: []",
               "!! TIMESERIES NAME: ElectricityProduced:Facility AND key_value: ",
               "Is NOT Initialized",
               "TIMESERIES: Gas:Facility",
               "KEY VALUES: [\"\"]",
               "!! TIMESERIES NAME: Gas:Facility AND key_value: ",
               "Is Initialized",
               "TIMESERIES: DistrictCooling:Facility",
               "KEY VALUES: []",
               "!! TIMESERIES NAME: DistrictCooling:Facility AND key_value: ",
               "Is NOT Initialized",
               "TIMESERIES: DistrictHeating:Facility",
               "KEY VALUES: []",
               "!! TIMESERIES NAME: DistrictHeating:Facility AND key_value: ",
               "Is NOT Initialized",
               "TIMESERIES: District Cooling Chilled Water Rate",
               "KEY VALUES: []",
               "!! TIMESERIES NAME: District Cooling Chilled Water Rate AND key_value: ",
               "Is NOT Initialized",
               "TIMESERIES: District Cooling Mass Flow Rate",
               "KEY VALUES: []",
               "!! TIMESERIES NAME: District Cooling Mass Flow Rate AND key_value: ",
               "Is NOT Initialized",
               "TIMESERIES: District Cooling Inlet Temperature",
               "KEY VALUES: []",
               "!! TIMESERIES NAME: District Cooling Inlet Temperature AND key_value: ",
               "Is NOT Initialized",
               "TIMESERIES: District Cooling Outlet Temperature",
               "KEY VALUES: []",
               "!! TIMESERIES NAME: District Cooling Outlet Temperature AND key_value: ",
               "Is NOT Initialized",
               "TIMESERIES: District Heating Hot Water Rate",
               "KEY VALUES: []",
               "!! TIMESERIES NAME: District Heating Hot Water Rate AND key_value: ",
               "Is NOT Initialized",
               "TIMESERIES: District Heating Mass Flow Rate",
               "KEY VALUES: []",
               "!! TIMESERIES NAME: District Heating Mass Flow Rate AND key_value: ",
               "Is NOT Initialized",
               "TIMESERIES: District Heating Inlet Temperature",
               "KEY VALUES: []",
               "!! TIMESERIES NAME: District Heating Inlet Temperature AND key_value: ",
               "Is NOT Initialized",
               "TIMESERIES: District Heating Outlet Temperature",
               "KEY VALUES: []",
               "!! TIMESERIES NAME: District Heating Outlet Temperature AND key_value: ",
               "Is NOT Initialized",
               "TIMESERIES: Zone Thermal Comfort Fanger Model PMV",
               "KEY VALUES: [\"BUILDING STORY 1 THERMALZONE STRIPMALL STRIP MALL - TYPE 2 PEOPLE 2\", \"BUILDING STORY 1 THERMALZONE STRIPMALL STRIP MALL - TYPE 3 PEOPLE 1\", \"BUILDING STORY 2 THERMALZONE STRIPMALL STRIP MALL - TYPE 1 PEOPLE 1\", \"BUILDING STORY 2 THERMALZONE STRIPMALL STRIP MALL - TYPE 2 PEOPLE 1\", \"BUILDING STORY 3 THERMALZONE STRIPMALL STRIP MALL - TYPE 3 PEOPLE 2\"]",
               "!! TIMESERIES NAME: Zone Thermal Comfort Fanger Model PMV AND key_value: BUILDING STORY 1 THERMALZONE STRIPMALL STRIP MALL - TYPE 2 PEOPLE 2",
               "Is Initialized",
               "SETTING UP NEW ARRAY FOR: Zone Thermal Comfort Fanger Model PMV",
               "!! TIMESERIES NAME: Zone Thermal Comfort Fanger Model PMV AND key_value: BUILDING STORY 1 THERMALZONE STRIPMALL STRIP MALL - TYPE 3 PEOPLE 1",
               "Is Initialized",
               "!! TIMESERIES NAME: Zone Thermal Comfort Fanger Model PMV AND key_value: BUILDING STORY 2 THERMALZONE STRIPMALL STRIP MALL - TYPE 1 PEOPLE 1",
               "Is Initialized",
               "!! TIMESERIES NAME: Zone Thermal Comfort Fanger Model PMV AND key_value: BUILDING STORY 2 THERMALZONE STRIPMALL STRIP MALL - TYPE 2 PEOPLE 1",
               "Is Initialized",
               "!! TIMESERIES NAME: Zone Thermal Comfort Fanger Model PMV AND key_value: BUILDING STORY 3 THERMALZONE STRIPMALL STRIP MALL - TYPE 3 PEOPLE 2",
               "Is Initialized",
               "timeseries Zone Thermal Comfort Fanger Model PMV: hours out of bounds: 727.0",
               "TIMESERIES: Zone Thermal Comfort Fanger Model PPD",
               "KEY VALUES: [\"BUILDING STORY 1 THERMALZONE STRIPMALL STRIP MALL - TYPE 2 PEOPLE 2\", \"BUILDING STORY 1 THERMALZONE STRIPMALL STRIP MALL - TYPE 3 PEOPLE 1\", \"BUILDING STORY 2 THERMALZONE STRIPMALL STRIP MALL - TYPE 1 PEOPLE 1\", \"BUILDING STORY 2 THERMALZONE STRIPMALL STRIP MALL - TYPE 2 PEOPLE 1\", \"BUILDING STORY 3 THERMALZONE STRIPMALL STRIP MALL - TYPE 3 PEOPLE 2\"]",
               "!! TIMESERIES NAME: Zone Thermal Comfort Fanger Model PPD AND key_value: BUILDING STORY 1 THERMALZONE STRIPMALL STRIP MALL - TYPE 2 PEOPLE 2",
               "Is Initialized",
               "SETTING UP NEW ARRAY FOR: Zone Thermal Comfort Fanger Model PPD",
               "!! TIMESERIES NAME: Zone Thermal Comfort Fanger Model PPD AND key_value: BUILDING STORY 1 THERMALZONE STRIPMALL STRIP MALL - TYPE 3 PEOPLE 1",
               "Is Initialized",
               "!! TIMESERIES NAME: Zone Thermal Comfort Fanger Model PPD AND key_value: BUILDING STORY 2 THERMALZONE STRIPMALL STRIP MALL - TYPE 1 PEOPLE 1",
               "Is Initialized",
               "!! TIMESERIES NAME: Zone Thermal Comfort Fanger Model PPD AND key_value: BUILDING STORY 2 THERMALZONE STRIPMALL STRIP MALL - TYPE 2 PEOPLE 1",
               "Is Initialized",
               "!! TIMESERIES NAME: Zone Thermal Comfort Fanger Model PPD AND key_value: BUILDING STORY 3 THERMALZONE STRIPMALL STRIP MALL - TYPE 3 PEOPLE 2",
               "Is Initialized",
               "timeseries Zone Thermal Comfort Fanger Model PPD: hours out of bounds: 6.0",
               "TIMESERIES: Net Electric Energy",
               "KEY VALUES: []",
               "!! TIMESERIES NAME: Net Electric Energy AND key_value: ",
               "Is NOT Initialized",
               "TIMESERIES: Electricity:Facility Power",
               "KEY VALUES: []",
               "!! TIMESERIES NAME: Electricity:Facility Power AND key_value: ",
               "Is NOT Initialized",
               "timeseries_name: Electricity:Facility Power, key: Electricity:Facility",
               "TIMESERIES: ElectricityProduced:Facility Power",
               "KEY VALUES: []",
               "!! TIMESERIES NAME: ElectricityProduced:Facility Power AND key_value: ",
               "Is NOT Initialized",
               "timeseries_name: ElectricityProduced:Facility Power, key: ElectricityProduced:Facility",
               "TIMESERIES: Electricity:Facility Apparent Power",
               "KEY VALUES: []",
               "!! TIMESERIES NAME: Electricity:Facility Apparent Power AND key_value: ",
               "Is NOT Initialized",
               "timeseries_name: Electricity:Facility Apparent Power, key: Electricity:Facility",
               "TIMESERIES: ElectricityProduced:Facility Apparent Power",
               "KEY VALUES: []",
               "!! TIMESERIES NAME: ElectricityProduced:Facility Apparent Power AND key_value: ",
               "Is NOT Initialized",
               "timeseries_name: ElectricityProduced:Facility Apparent Power, key: ElectricityProduced:Facility",
               "TIMESERIES: Net Power",
               "KEY VALUES: []",
               "!! TIMESERIES NAME: Net Power AND key_value: ",
               "Is NOT Initialized",
               "Power calc",
               "TIMESERIES: Net Apparent Power",
               "KEY VALUES: []",
               "!! TIMESERIES NAME: Net Apparent Power AND key_value: ",
               "Is NOT Initialized",
               "new final_timeseries_names size: 31"
            ],
            "step_result" : "Success",
            "step_values" : [
               {
                  "name" : "feature_id",
                  "value" : "12"
               },
               {
                  "name" : "feature_name",
                  "value" : "Mall 1"
               },
               {
                  "name" : "feature_type",
                  "value" : "Building"
               },
               {
                  "name" : "reporting_frequency",
                  "value" : "Timestep"
               }
            ],
            "step_warnings" : [
               "Query failed for Life-Cycle Cost Report and TableName='Present Value for Recurring, Nonrecurring and Energy Costs (Before Tax)' AND RowName='LCC_MAT - BUILDING - LIFE CYCLE COSTS' AND ColumnName='Cost'"
            ]
         }
      }
   ],
   "updated_at" : "20200326T193610Z",
   "weather_file" : null
}
