Program Version,EnergyPlus, Version 9.1.0-fafb9d5652, YMD=2020.03.26 13:37
! This file shows details about the branches, nodes, and other
! elements of the flow connections.
! This file is intended for use in "debugging" potential problems
! that may also be detected by the program, but may be more easily
! identified by "eye".
! This file is also intended to support software which draws a
! schematic diagram of the HVAC system.
! ===============================================================
! #Nodes,<Number of Unique Nodes>
 #Nodes,217
! <Node>,<NodeNumber>,<Node Name>,<Node Fluid Type>,<# Times Node Referenced After Definition>
 Node,1,BUILDING STORY 1 THERMALZONE VAV TERMINAL OUTLET AIR NODE,Air,4
 Node,2,BUILDING STORY 1 THERMALZONE RETURN AIR NODE,Air,2
 Node,3,BUILDING STORY 10 THERMALZONE PTAC OUTLET AIR NODE,Air,3
 Node,4,BUILDING STORY 10 THERMALZONE PTAC INLET AIR NODE,Air,3
 Node,5,BUILDING STORY 2 THERMALZONE VAV TERMINAL OUTLET AIR NODE,Air,4
 Node,6,BUILDING STORY 2 THERMALZONE RETURN AIR NODE,Air,2
 Node,7,BUILDING STORY 3 THERMALZONE PTAC OUTLET AIR NODE,Air,3
 Node,8,BUILDING STORY 3 THERMALZONE PTAC INLET AIR NODE,Air,3
 Node,9,BUILDING STORY 4 THERMALZONE VAV TERMINAL OUTLET AIR NODE,Air,4
 Node,10,BUILDING STORY 4 THERMALZONE RETURN AIR NODE,Air,2
 Node,11,BUILDING STORY 5 THERMALZONE PTAC OUTLET AIR NODE,Air,3
 Node,12,BUILDING STORY 5 THERMALZONE PTAC INLET AIR NODE,Air,3
 Node,13,BUILDING STORY 6 THERMALZONE PTAC OUTLET AIR NODE,Air,3
 Node,14,BUILDING STORY 6 THERMALZONE PTAC INLET AIR NODE,Air,3
 Node,15,BUILDING STORY 7 THERMALZONE PTAC OUTLET AIR NODE,Air,3
 Node,16,BUILDING STORY 7 THERMALZONE PTAC INLET AIR NODE,Air,3
 Node,17,BUILDING STORY 8 THERMALZONE PTAC OUTLET AIR NODE,Air,3
 Node,18,BUILDING STORY 8 THERMALZONE PTAC INLET AIR NODE,Air,3
 Node,19,BUILDING STORY 9 THERMALZONE PTAC OUTLET AIR NODE,Air,3
 Node,20,BUILDING STORY 9 THERMALZONE PTAC INLET AIR NODE,Air,3
 Node,21,1 ZONE PVAV SUPPLY OUTLET NODE,Air,10
 Node,22,1 ZONE PVAV DEMAND INLET NODE,Air,3
 Node,23,1 ZONE PVAV 1 SUPPLY OUTLET NODE,Air,10
 Node,24,1 ZONE PVAV 1 DEMAND INLET NODE,Air,3
 Node,25,1 ZONE PVAV 2 SUPPLY OUTLET NODE,Air,10
 Node,26,1 ZONE PVAV 2 DEMAND INLET NODE,Air,3
 Node,27,1 ZONE PVAV SUPPLY INLET NODE,Air,3
 Node,28,1 ZONE PVAV MIXED AIR NODE,Air,6
 Node,29,1 ZONE PVAV 2SPD DX CLG COIL OUTLET AIR NODE,Air,6
 Node,30,1 ZONE PVAV MAIN HTG COIL OUTLET AIR NODE,Air,8
 Node,31,1 ZONE PVAV 1 SUPPLY INLET NODE,Air,3
 Node,32,1 ZONE PVAV 1 MIXED AIR NODE,Air,6
 Node,33,1 ZONE PVAV 1 2SPD DX CLG COIL OUTLET AIR NODE,Air,6
 Node,34,1 ZONE PVAV 1 MAIN HTG COIL OUTLET AIR NODE,Air,8
 Node,35,1 ZONE PVAV 2 SUPPLY INLET NODE,Air,3
 Node,36,1 ZONE PVAV 2 MIXED AIR NODE,Air,6
 Node,37,1 ZONE PVAV 2 2SPD DX CLG COIL OUTLET AIR NODE,Air,6
 Node,38,1 ZONE PVAV 2 MAIN HTG COIL OUTLET AIR NODE,Air,8
 Node,39,HOT WATER LOOP SUPPLY INLET NODE,Water,2
 Node,40,HOT WATER LOOP PUMP OUTLET WATER NODE,Water,1
 Node,41,BOILER INLET WATER NODE,Water,1
 Node,42,BOILER OUTLET WATER NODE,Water,1
 Node,43,HOT WATER LOOP SUPPLY EQUIPMENT BYPASS INLET WATER NODE,Water,1
 Node,44,HOT WATER LOOP SUPPLY EQUIPMENT BYPASS OUTLET WATER NODE,Water,1
 Node,45,HOT WATER LOOP SUPPLY OUTLET INLET WATER NODE,Water,1
 Node,46,HOT WATER LOOP SUPPLY OUTLET NODE,Water,4
 Node,47,HOT WATER LOOP DEMAND INLET NODE,Water,2
 Node,48,HOT WATER LOOP DEMAND INLET OUTLET WATER NODE,Water,1
 Node,49,HOT WATER LOOP COIL BYPASS INLET WATER NODE,Water,1
 Node,50,HOT WATER LOOP COIL BYPASS OUTLET WATER NODE,Water,1
 Node,51,1 ZONE PVAV MAIN HTG COIL INLET WATER NODE,Water,2
 Node,52,1 ZONE PVAV MAIN HTG COIL OUTLET WATER NODE,Water,1
 Node,53,BUILDING STORY 1 THERMALZONE REHEAT COIL INLET WATER NODE,Water,1
 Node,54,BUILDING STORY 1 THERMALZONE REHEAT COIL OUTLET WATER NODE,Water,1
 Node,55,1 ZONE PVAV 1 MAIN HTG COIL INLET WATER NODE,Water,2
 Node,56,1 ZONE PVAV 1 MAIN HTG COIL OUTLET WATER NODE,Water,1
 Node,57,BUILDING STORY 2 THERMALZONE REHEAT COIL INLET WATER NODE,Water,1
 Node,58,BUILDING STORY 2 THERMALZONE REHEAT COIL OUTLET WATER NODE,Water,1
 Node,59,1 ZONE PVAV 2 MAIN HTG COIL INLET WATER NODE,Water,2
 Node,60,1 ZONE PVAV 2 MAIN HTG COIL OUTLET WATER NODE,Water,1
 Node,61,BUILDING STORY 4 THERMALZONE REHEAT COIL INLET WATER NODE,Water,1
 Node,62,BUILDING STORY 4 THERMALZONE REHEAT COIL OUTLET WATER NODE,Water,1
 Node,63,HOT WATER LOOP WATER HTG COIL INLET WATER NODE,Water,2
 Node,64,HOT WATER LOOP WATER HTG COIL OUTLET WATER NODE,Water,1
 Node,65,HOT WATER LOOP WATER HTG COIL 1 INLET WATER NODE,Water,2
 Node,66,HOT WATER LOOP WATER HTG COIL 1 OUTLET WATER NODE,Water,1
 Node,67,HOT WATER LOOP WATER HTG COIL 2 INLET WATER NODE,Water,2
 Node,68,HOT WATER LOOP WATER HTG COIL 2 OUTLET WATER NODE,Water,1
 Node,69,HOT WATER LOOP WATER HTG COIL 3 INLET WATER NODE,Water,2
 Node,70,HOT WATER LOOP WATER HTG COIL 3 OUTLET WATER NODE,Water,1
 Node,71,HOT WATER LOOP WATER HTG COIL 4 INLET WATER NODE,Water,2
 Node,72,HOT WATER LOOP WATER HTG COIL 4 OUTLET WATER NODE,Water,1
 Node,73,HOT WATER LOOP WATER HTG COIL 5 INLET WATER NODE,Water,2
 Node,74,HOT WATER LOOP WATER HTG COIL 5 OUTLET WATER NODE,Water,1
 Node,75,HOT WATER LOOP WATER HTG COIL 6 INLET WATER NODE,Water,2
 Node,76,HOT WATER LOOP WATER HTG COIL 6 OUTLET WATER NODE,Water,1
 Node,77,HOT WATER LOOP DEMAND BYPASS PIPE INLET NODE,Water,1
 Node,78,HOT WATER LOOP DEMAND BYPASS PIPE OUTLET NODE,Water,1
 Node,79,HOT WATER LOOP DEMAND OUTLET INLET WATER NODE,Water,1
 Node,80,HOT WATER LOOP DEMAND OUTLET NODE,Water,2
 Node,81,LARGEHOTEL KITCHEN - 90.1-2013 SERVICE WATER BOOSTER LOOP SUPPLY INLET NODE,Water,2
 Node,82,BOOSTER WATER LOOP PUMP INLET WATER NODE,Water,3
 Node,83,BOOSTER WATER LOOP PUMP OUTLET WATER NODE,Water,1
 Node,84,6.0GAL ELECTRICITY BOOSTER WATER HEATER - 50KBTU/HR SUPPLY INLET WATER NODE,Water,1
 Node,85,6.0GAL ELECTRICITY BOOSTER WATER HEATER - 50KBTU/HR SUPPLY OUTLET WATER NODE,Water,1
 Node,86,PIPE ADIABATIC 5 INLET WATER NODE,Water,1
 Node,87,PIPE ADIABATIC 5 OUTLET WATER NODE,Water,1
 Node,88,PIPE ADIABATIC 7 INLET WATER NODE,Water,1
 Node,89,LARGEHOTEL KITCHEN - 90.1-2013 SERVICE WATER BOOSTER LOOP SUPPLY OUTLET NODE,Water,5
 Node,90,LARGEHOTEL KITCHEN - 90.1-2013 SERVICE WATER BOOSTER LOOP DEMAND INLET NODE,Water,2
 Node,91,PIPE ADIABATIC 8 OUTLET WATER NODE,Water,1
 Node,92,PIPE ADIABATIC 6 INLET WATER NODE,Water,1
 Node,93,PIPE ADIABATIC 6 OUTLET WATER NODE,Water,1
 Node,94,BOOSTER LARGEHOTEL KITCHEN - 90.1-2013 WUC 4.17GPM AT 180F INLET WATER NODE,Water,1
 Node,95,BOOSTER LARGEHOTEL KITCHEN - 90.1-2013 WUC 4.17GPM AT 180F OUTLET WATER NODE,Water,1
 Node,96,LARGEHOTEL KITCHEN - 90.1-2013 SERVICE WATER BOOSTER LOOP DEMAND BYPASS PIPE INLET NODE,Water,1
 Node,97,LARGEHOTEL KITCHEN - 90.1-2013 SERVICE WATER BOOSTER LOOP DEMAND BYPASS PIPE OUTLET NODE,Water,1
 Node,98,PIPE ADIABATIC 9 INLET WATER NODE,Water,1
 Node,99,LARGEHOTEL KITCHEN - 90.1-2013 SERVICE WATER BOOSTER LOOP DEMAND OUTLET NODE,Water,2
 Node,100,LARGEHOTEL KITCHEN - 90.1-2013 SERVICE WATER LOOP SUPPLY INLET NODE,Water,2
 Node,101,LARGEHOTEL KITCHEN - 90.1-2013 SERVICE WATER LOOP WATER MAINS PRESSURE DRIVEN OUTLET WATER NODE,Water,1
 Node,102,263GAL NATURALGAS WATER HEATER - 263KBTU/HR SUPPLY INLET WATER NODE,Water,1
 Node,103,263GAL NATURALGAS WATER HEATER - 263KBTU/HR SUPPLY OUTLET WATER NODE,Water,1
 Node,104,PIPE ADIABATIC 1 INLET WATER NODE,Water,1
 Node,105,PIPE ADIABATIC 1 OUTLET WATER NODE,Water,1
 Node,106,PIPE ADIABATIC 3 INLET WATER NODE,Water,1
 Node,107,LARGEHOTEL KITCHEN - 90.1-2013 SERVICE WATER LOOP SUPPLY OUTLET NODE,Water,4
 Node,108,LARGEHOTEL KITCHEN - 90.1-2013 SERVICE WATER LOOP DEMAND INLET NODE,Water,2
 Node,109,LARGEHOTEL KITCHEN - 90.1-2013 SERVICE WATER LOOP PIPE 20.0FT OUTLET WATER NODE,Water,1
 Node,110,PIPE ADIABATIC 2 INLET WATER NODE,Water,1
 Node,111,PIPE ADIABATIC 2 OUTLET WATER NODE,Water,1
 Node,112,LARGEHOTEL KITCHEN - 90.1-2013 WUC 2.78GPM AT 140F INLET WATER NODE,Water,1
 Node,113,LARGEHOTEL KITCHEN - 90.1-2013 WUC 2.78GPM AT 140F OUTLET WATER NODE,Water,1
 Node,114,HX FOR BOOSTER WATER HEATING DEMAND INLET WATER NODE,Water,1
 Node,115,MAINS WATER MAKEUP FOR SWH BOOSTER INLET WATER NODE,Water,3
 Node,116,MAINS WATER MAKEUP FOR SWH BOOSTER OUTLET WATER NODE,Water,1
 Node,117,LARGEHOTEL KITCHEN - 90.1-2013 SERVICE WATER LOOP DEMAND BYPASS PIPE INLET NODE,Water,1
 Node,118,LARGEHOTEL KITCHEN - 90.1-2013 SERVICE WATER LOOP DEMAND BYPASS PIPE OUTLET NODE,Water,1
 Node,119,PIPE ADIABATIC 4 INLET WATER NODE,Water,1
 Node,120,LARGEHOTEL KITCHEN - 90.1-2013 SERVICE WATER LOOP DEMAND OUTLET NODE,Water,2
 Node,121,LARGEHOTEL LAUNDRY - 90.1-2013 SERVICE WATER LOOP SUPPLY INLET NODE,Water,2
 Node,122,LARGEHOTEL LAUNDRY - 90.1-2013 SERVICE WATER LOOP WATER MAINS PRESSURE DRIVEN OUTLET WATER NODE,Water,1
 Node,123,517GAL ELECTRICITY WATER HEATER - 517KBTU/HR SUPPLY INLET WATER NODE,Water,1
 Node,124,517GAL ELECTRICITY WATER HEATER - 517KBTU/HR SUPPLY OUTLET WATER NODE,Water,1
 Node,125,PIPE ADIABATIC 10 INLET WATER NODE,Water,1
 Node,126,PIPE ADIABATIC 10 OUTLET WATER NODE,Water,1
 Node,127,PIPE ADIABATIC 12 INLET WATER NODE,Water,1
 Node,128,LARGEHOTEL LAUNDRY - 90.1-2013 SERVICE WATER LOOP SUPPLY OUTLET NODE,Water,4
 Node,129,LARGEHOTEL LAUNDRY - 90.1-2013 SERVICE WATER LOOP DEMAND INLET NODE,Water,2
 Node,130,LARGEHOTEL LAUNDRY - 90.1-2013 SERVICE WATER LOOP PIPE 20.0FT OUTLET WATER NODE,Water,1
 Node,131,PIPE ADIABATIC 11 INLET WATER NODE,Water,1
 Node,132,PIPE ADIABATIC 11 OUTLET WATER NODE,Water,1
 Node,133,LARGEHOTEL LAUNDRY - 90.1-2013 WUC 8.21GPM AT 140F INLET WATER NODE,Water,1
 Node,134,LARGEHOTEL LAUNDRY - 90.1-2013 WUC 8.21GPM AT 140F OUTLET WATER NODE,Water,1
 Node,135,LARGEHOTEL LAUNDRY - 90.1-2013 SERVICE WATER LOOP DEMAND BYPASS PIPE INLET NODE,Water,1
 Node,136,LARGEHOTEL LAUNDRY - 90.1-2013 SERVICE WATER LOOP DEMAND BYPASS PIPE OUTLET NODE,Water,1
 Node,137,PIPE ADIABATIC 13 INLET WATER NODE,Water,1
 Node,138,LARGEHOTEL LAUNDRY - 90.1-2013 SERVICE WATER LOOP DEMAND OUTLET NODE,Water,2
 Node,139,LARGEHOTEL SHARED SERVICE WATER LOOP SUPPLY INLET NODE,Water,2
 Node,140,LARGEHOTEL SHARED SERVICE WATER LOOP CIRCULATOR PUMP OUTLET WATER NODE,Water,1
 Node,141,392GAL ELECTRICITY WATER HEATER - 392KBTU/HR SUPPLY INLET WATER NODE,Water,1
 Node,142,392GAL ELECTRICITY WATER HEATER - 392KBTU/HR SUPPLY OUTLET WATER NODE,Water,1
 Node,143,PIPE ADIABATIC 14 INLET WATER NODE,Water,1
 Node,144,PIPE ADIABATIC 14 OUTLET WATER NODE,Water,1
 Node,145,PIPE ADIABATIC 16 INLET WATER NODE,Water,1
 Node,146,LARGEHOTEL SHARED SERVICE WATER LOOP SUPPLY OUTLET NODE,Water,4
 Node,147,LARGEHOTEL SHARED SERVICE WATER LOOP DEMAND INLET NODE,Water,2
 Node,148,LARGEHOTEL SHARED SERVICE WATER LOOP PIPE 535.6177723342867FT OUTLET WATER NODE,Water,1
 Node,149,PIPE ADIABATIC 15 INLET WATER NODE,Water,1
 Node,150,PIPE ADIABATIC 15 OUTLET WATER NODE,Water,1
 Node,151,LARGEHOTEL GUESTROOM - 90.1-2013 WUC 7.79GPM AT 140F INLET WATER NODE,Water,1
 Node,152,LARGEHOTEL GUESTROOM - 90.1-2013 WUC 7.79GPM AT 140F OUTLET WATER NODE,Water,1
 Node,153,LARGEHOTEL SHARED SERVICE WATER LOOP DEMAND BYPASS PIPE INLET NODE,Water,1
 Node,154,LARGEHOTEL SHARED SERVICE WATER LOOP DEMAND BYPASS PIPE OUTLET NODE,Water,1
 Node,155,PIPE ADIABATIC 17 INLET WATER NODE,Water,1
 Node,156,LARGEHOTEL SHARED SERVICE WATER LOOP DEMAND OUTLET NODE,Water,2
 Node,157,BUILDING STORY 1 THERMALZONE ZONE AIR NODE,Air,0
 Node,158,BUILDING STORY 10 THERMALZONE ZONE AIR NODE,Air,0
 Node,159,BUILDING STORY 2 THERMALZONE ZONE AIR NODE,Air,0
 Node,160,BUILDING STORY 3 THERMALZONE ZONE AIR NODE,Air,0
 Node,161,BUILDING STORY 4 THERMALZONE ZONE AIR NODE,Air,0
 Node,162,BUILDING STORY 5 THERMALZONE ZONE AIR NODE,Air,0
 Node,163,BUILDING STORY 6 THERMALZONE ZONE AIR NODE,Air,0
 Node,164,BUILDING STORY 7 THERMALZONE ZONE AIR NODE,Air,0
 Node,165,BUILDING STORY 8 THERMALZONE ZONE AIR NODE,Air,0
 Node,166,BUILDING STORY 9 THERMALZONE ZONE AIR NODE,Air,0
 Node,167,1 ZONE PVAV DEMAND OUTLET NODE,Air,2
 Node,168,1 ZONE PVAV 1 DEMAND OUTLET NODE,Air,2
 Node,169,1 ZONE PVAV 2 DEMAND OUTLET NODE,Air,2
 Node,170,BUILDING STORY 10 THERMALZONE PTAC OA NODE,Air,1
 Node,171,BUILDING STORY 3 THERMALZONE PTAC OA NODE,Air,1
 Node,172,BUILDING STORY 5 THERMALZONE PTAC OA NODE,Air,1
 Node,173,BUILDING STORY 6 THERMALZONE PTAC OA NODE,Air,1
 Node,174,BUILDING STORY 7 THERMALZONE PTAC OA NODE,Air,1
 Node,175,BUILDING STORY 8 THERMALZONE PTAC OA NODE,Air,1
 Node,176,BUILDING STORY 9 THERMALZONE PTAC OA NODE,Air,1
 Node,177,1 ZONE PVAV OUTDOOR AIR NODE,Air,2
 Node,178,1 ZONE PVAV 1 OUTDOOR AIR NODE,Air,2
 Node,179,1 ZONE PVAV 2 OUTDOOR AIR NODE,Air,2
 Node,180,MODEL OUTDOOR AIR NODE,Air,0
 Node,181,BUILDING STORY 1 THERMALZONE VAV TERMINAL INLET AIR NODE,Air,1
 Node,182,BUILDING STORY 2 THERMALZONE VAV TERMINAL INLET AIR NODE,Air,1
 Node,183,BUILDING STORY 4 THERMALZONE VAV TERMINAL INLET AIR NODE,Air,1
 Node,184,BUILDING STORY 1 THERMALZONE VAV TERMINAL DAMPER OUTLET,Air,1
 Node,185,BUILDING STORY 10 THERMALZONE PTAC COOLING COIL OUTLET NODE,Air,1
 Node,186,BUILDING STORY 10 THERMALZONE PTAC HEATING COIL OUTLET NODE,Air,1
 Node,187,BUILDING STORY 2 THERMALZONE VAV TERMINAL DAMPER OUTLET,Air,1
 Node,188,BUILDING STORY 3 THERMALZONE PTAC COOLING COIL OUTLET NODE,Air,1
 Node,189,BUILDING STORY 3 THERMALZONE PTAC HEATING COIL OUTLET NODE,Air,1
 Node,190,BUILDING STORY 4 THERMALZONE VAV TERMINAL DAMPER OUTLET,Air,1
 Node,191,BUILDING STORY 5 THERMALZONE PTAC COOLING COIL OUTLET NODE,Air,1
 Node,192,BUILDING STORY 5 THERMALZONE PTAC HEATING COIL OUTLET NODE,Air,1
 Node,193,BUILDING STORY 6 THERMALZONE PTAC COOLING COIL OUTLET NODE,Air,1
 Node,194,BUILDING STORY 6 THERMALZONE PTAC HEATING COIL OUTLET NODE,Air,1
 Node,195,BUILDING STORY 7 THERMALZONE PTAC COOLING COIL OUTLET NODE,Air,1
 Node,196,BUILDING STORY 7 THERMALZONE PTAC HEATING COIL OUTLET NODE,Air,1
 Node,197,BUILDING STORY 8 THERMALZONE PTAC COOLING COIL OUTLET NODE,Air,1
 Node,198,BUILDING STORY 8 THERMALZONE PTAC HEATING COIL OUTLET NODE,Air,1
 Node,199,BUILDING STORY 9 THERMALZONE PTAC COOLING COIL OUTLET NODE,Air,1
 Node,200,BUILDING STORY 9 THERMALZONE PTAC HEATING COIL OUTLET NODE,Air,1
 Node,201,BUILDING STORY 10 THERMALZONE PTAC MIXED AIR NODE,Air,1
 Node,202,BUILDING STORY 10 THERMALZONE PTAC RELIEF AIR NODE,Air,0
 Node,203,BUILDING STORY 3 THERMALZONE PTAC MIXED AIR NODE,Air,1
 Node,204,BUILDING STORY 3 THERMALZONE PTAC RELIEF AIR NODE,Air,0
 Node,205,BUILDING STORY 5 THERMALZONE PTAC MIXED AIR NODE,Air,1
 Node,206,BUILDING STORY 5 THERMALZONE PTAC RELIEF AIR NODE,Air,0
 Node,207,BUILDING STORY 6 THERMALZONE PTAC MIXED AIR NODE,Air,1
 Node,208,BUILDING STORY 6 THERMALZONE PTAC RELIEF AIR NODE,Air,0
 Node,209,BUILDING STORY 7 THERMALZONE PTAC MIXED AIR NODE,Air,1
 Node,210,BUILDING STORY 7 THERMALZONE PTAC RELIEF AIR NODE,Air,0
 Node,211,BUILDING STORY 8 THERMALZONE PTAC MIXED AIR NODE,Air,1
 Node,212,BUILDING STORY 8 THERMALZONE PTAC RELIEF AIR NODE,Air,0
 Node,213,BUILDING STORY 9 THERMALZONE PTAC MIXED AIR NODE,Air,1
 Node,214,BUILDING STORY 9 THERMALZONE PTAC RELIEF AIR NODE,Air,0
 Node,215,1 ZONE PVAV RELIEF AIR NODE,Air,1
 Node,216,1 ZONE PVAV 1 RELIEF AIR NODE,Air,1
 Node,217,1 ZONE PVAV 2 RELIEF AIR NODE,Air,1
! ===============================================================
! Suspicious nodes have 0 references.  It is normal for some nodes, however.
! Listing nodes with 0 references (culled from previous list):
! <Suspicious Node>,<NodeNumber>,<Node Name>,<Node Fluid Type>,<# Times Node Referenced After Definition>
 Suspicious Node,157,BUILDING STORY 1 THERMALZONE ZONE AIR NODE,Air,0
 Suspicious Node,158,BUILDING STORY 10 THERMALZONE ZONE AIR NODE,Air,0
 Suspicious Node,159,BUILDING STORY 2 THERMALZONE ZONE AIR NODE,Air,0
 Suspicious Node,160,BUILDING STORY 3 THERMALZONE ZONE AIR NODE,Air,0
 Suspicious Node,161,BUILDING STORY 4 THERMALZONE ZONE AIR NODE,Air,0
 Suspicious Node,162,BUILDING STORY 5 THERMALZONE ZONE AIR NODE,Air,0
 Suspicious Node,163,BUILDING STORY 6 THERMALZONE ZONE AIR NODE,Air,0
 Suspicious Node,164,BUILDING STORY 7 THERMALZONE ZONE AIR NODE,Air,0
 Suspicious Node,165,BUILDING STORY 8 THERMALZONE ZONE AIR NODE,Air,0
 Suspicious Node,166,BUILDING STORY 9 THERMALZONE ZONE AIR NODE,Air,0
 Suspicious Node,180,MODEL OUTDOOR AIR NODE,Air,0
 Suspicious Node,202,BUILDING STORY 10 THERMALZONE PTAC RELIEF AIR NODE,Air,0
 Suspicious Node,204,BUILDING STORY 3 THERMALZONE PTAC RELIEF AIR NODE,Air,0
 Suspicious Node,206,BUILDING STORY 5 THERMALZONE PTAC RELIEF AIR NODE,Air,0
 Suspicious Node,208,BUILDING STORY 6 THERMALZONE PTAC RELIEF AIR NODE,Air,0
 Suspicious Node,210,BUILDING STORY 7 THERMALZONE PTAC RELIEF AIR NODE,Air,0
 Suspicious Node,212,BUILDING STORY 8 THERMALZONE PTAC RELIEF AIR NODE,Air,0
 Suspicious Node,214,BUILDING STORY 9 THERMALZONE PTAC RELIEF AIR NODE,Air,0
! ===============================================================
! <#Branch Lists>,<Number of Branch Lists>
 #Branch Lists,13
! <Branch List>,<Branch List Count>,<Branch List Name>,<Loop Name>,<Loop Type>,<Number of Branches>
! <Branch>,<Branch Count>,<Branch Name>,<Loop Name>,<Loop Type>,<Branch Inlet Node Name>,<Branch Outlet Node Name>
 Branch List,1,1 ZONE PVAV SUPPLY BRANCHES,1 ZONE PVAV,Air,1
   Branch,1,1 ZONE PVAV MAIN BRANCH,1 ZONE PVAV,Air,1 ZONE PVAV SUPPLY INLET NODE,1 ZONE PVAV SUPPLY OUTLET NODE
 Branch List,2,1 ZONE PVAV 1 SUPPLY BRANCHES,1 ZONE PVAV 1,Air,1
   Branch,1,1 ZONE PVAV 1 MAIN BRANCH,1 ZONE PVAV 1,Air,1 ZONE PVAV 1 SUPPLY INLET NODE,1 ZONE PVAV 1 SUPPLY OUTLET NODE
 Branch List,3,1 ZONE PVAV 2 SUPPLY BRANCHES,1 ZONE PVAV 2,Air,1
   Branch,1,1 ZONE PVAV 2 MAIN BRANCH,1 ZONE PVAV 2,Air,1 ZONE PVAV 2 SUPPLY INLET NODE,1 ZONE PVAV 2 SUPPLY OUTLET NODE
 Branch List,4,HOT WATER LOOP SUPPLY BRANCHES,HOT WATER LOOP,Plant Supply,4
   Branch,1,HOT WATER LOOP SUPPLY INLET BRANCH,HOT WATER LOOP,Plant Supply,HOT WATER LOOP SUPPLY INLET NODE,HOT WATER LOOP PUMP OUTLET WATER NODE
   Branch,2,HOT WATER LOOP SUPPLY BRANCH 1,HOT WATER LOOP,Plant Supply,BOILER INLET WATER NODE,BOILER OUTLET WATER NODE
   Branch,3,HOT WATER LOOP SUPPLY BRANCH 2,HOT WATER LOOP,Plant Supply,HOT WATER LOOP SUPPLY EQUIPMENT BYPASS INLET WATER NODE,HOT WATER LOOP SUPPLY EQUIPMENT BYPASS OUTLET WATER NODE
   Branch,4,HOT WATER LOOP SUPPLY OUTLET BRANCH,HOT WATER LOOP,Plant Supply,HOT WATER LOOP SUPPLY OUTLET INLET WATER NODE,HOT WATER LOOP SUPPLY OUTLET NODE
 Branch List,5,HOT WATER LOOP DEMAND BRANCHES,HOT WATER LOOP,Plant Demand,17
   Branch,1,HOT WATER LOOP DEMAND INLET BRANCH,HOT WATER LOOP,Plant Demand,HOT WATER LOOP DEMAND INLET NODE,HOT WATER LOOP DEMAND INLET OUTLET WATER NODE
   Branch,2,HOT WATER LOOP DEMAND BRANCH 1,HOT WATER LOOP,Plant Demand,HOT WATER LOOP COIL BYPASS INLET WATER NODE,HOT WATER LOOP COIL BYPASS OUTLET WATER NODE
   Branch,3,HOT WATER LOOP DEMAND BRANCH 2,HOT WATER LOOP,Plant Demand,1 ZONE PVAV MAIN HTG COIL INLET WATER NODE,1 ZONE PVAV MAIN HTG COIL OUTLET WATER NODE
   Branch,4,HOT WATER LOOP DEMAND BRANCH 3,HOT WATER LOOP,Plant Demand,BUILDING STORY 1 THERMALZONE REHEAT COIL INLET WATER NODE,BUILDING STORY 1 THERMALZONE REHEAT COIL OUTLET WATER NODE
   Branch,5,HOT WATER LOOP DEMAND BRANCH 4,HOT WATER LOOP,Plant Demand,1 ZONE PVAV 1 MAIN HTG COIL INLET WATER NODE,1 ZONE PVAV 1 MAIN HTG COIL OUTLET WATER NODE
   Branch,6,HOT WATER LOOP DEMAND BRANCH 5,HOT WATER LOOP,Plant Demand,BUILDING STORY 2 THERMALZONE REHEAT COIL INLET WATER NODE,BUILDING STORY 2 THERMALZONE REHEAT COIL OUTLET WATER NODE
   Branch,7,HOT WATER LOOP DEMAND BRANCH 6,HOT WATER LOOP,Plant Demand,1 ZONE PVAV 2 MAIN HTG COIL INLET WATER NODE,1 ZONE PVAV 2 MAIN HTG COIL OUTLET WATER NODE
   Branch,8,HOT WATER LOOP DEMAND BRANCH 7,HOT WATER LOOP,Plant Demand,BUILDING STORY 4 THERMALZONE REHEAT COIL INLET WATER NODE,BUILDING STORY 4 THERMALZONE REHEAT COIL OUTLET WATER NODE
   Branch,9,HOT WATER LOOP DEMAND BRANCH 8,HOT WATER LOOP,Plant Demand,HOT WATER LOOP WATER HTG COIL INLET WATER NODE,HOT WATER LOOP WATER HTG COIL OUTLET WATER NODE
   Branch,10,HOT WATER LOOP DEMAND BRANCH 9,HOT WATER LOOP,Plant Demand,HOT WATER LOOP WATER HTG COIL 1 INLET WATER NODE,HOT WATER LOOP WATER HTG COIL 1 OUTLET WATER NODE
   Branch,11,HOT WATER LOOP DEMAND BRANCH 10,HOT WATER LOOP,Plant Demand,HOT WATER LOOP WATER HTG COIL 2 INLET WATER NODE,HOT WATER LOOP WATER HTG COIL 2 OUTLET WATER NODE
   Branch,12,HOT WATER LOOP DEMAND BRANCH 11,HOT WATER LOOP,Plant Demand,HOT WATER LOOP WATER HTG COIL 3 INLET WATER NODE,HOT WATER LOOP WATER HTG COIL 3 OUTLET WATER NODE
   Branch,13,HOT WATER LOOP DEMAND BRANCH 12,HOT WATER LOOP,Plant Demand,HOT WATER LOOP WATER HTG COIL 4 INLET WATER NODE,HOT WATER LOOP WATER HTG COIL 4 OUTLET WATER NODE
   Branch,14,HOT WATER LOOP DEMAND BRANCH 13,HOT WATER LOOP,Plant Demand,HOT WATER LOOP WATER HTG COIL 5 INLET WATER NODE,HOT WATER LOOP WATER HTG COIL 5 OUTLET WATER NODE
   Branch,15,HOT WATER LOOP DEMAND BRANCH 14,HOT WATER LOOP,Plant Demand,HOT WATER LOOP WATER HTG COIL 6 INLET WATER NODE,HOT WATER LOOP WATER HTG COIL 6 OUTLET WATER NODE
   Branch,16,HOT WATER LOOP DEMAND BYPASS BRANCH,HOT WATER LOOP,Plant Demand,HOT WATER LOOP DEMAND BYPASS PIPE INLET NODE,HOT WATER LOOP DEMAND BYPASS PIPE OUTLET NODE
   Branch,17,HOT WATER LOOP DEMAND OUTLET BRANCH,HOT WATER LOOP,Plant Demand,HOT WATER LOOP DEMAND OUTLET INLET WATER NODE,HOT WATER LOOP DEMAND OUTLET NODE
 Branch List,6,LARGEHOTEL KITCHEN - 90.1-2013 SERVICE WATER BOOSTER LOOP SUPPLY BRANCHES,LARGEHOTEL KITCHEN - 90.1-2013 SERVICE WATER BOOSTER LOOP,Plant Supply,4
   Branch,1,LARGEHOTEL KITCHEN - 90.1-2013 SERVICE WATER BOOSTER LOOP SUPPLY INLET BRANCH,LARGEHOTEL KITCHEN - 90.1-2013 SERVICE WATER BOOSTER LOOP,Plant Supply,LARGEHOTEL KITCHEN - 90.1-2013 SERVICE WATER BOOSTER LOOP SUPPLY INLET NODE,BOOSTER WATER LOOP PUMP OUTLET WATER NODE
   Branch,2,LARGEHOTEL KITCHEN - 90.1-2013 SERVICE WATER BOOSTER LOOP SUPPLY BRANCH 1,LARGEHOTEL KITCHEN - 90.1-2013 SERVICE WATER BOOSTER LOOP,Plant Supply,6.0GAL ELECTRICITY BOOSTER WATER HEATER - 50KBTU/HR SUPPLY INLET WATER NODE,6.0GAL ELECTRICITY BOOSTER WATER HEATER - 50KBTU/HR SUPPLY OUTLET WATER NODE
   Branch,3,LARGEHOTEL KITCHEN - 90.1-2013 SERVICE WATER BOOSTER LOOP SUPPLY BRANCH 2,LARGEHOTEL KITCHEN - 90.1-2013 SERVICE WATER BOOSTER LOOP,Plant Supply,PIPE ADIABATIC 5 INLET WATER NODE,PIPE ADIABATIC 5 OUTLET WATER NODE
   Branch,4,LARGEHOTEL KITCHEN - 90.1-2013 SERVICE WATER BOOSTER LOOP SUPPLY OUTLET BRANCH,LARGEHOTEL KITCHEN - 90.1-2013 SERVICE WATER BOOSTER LOOP,Plant Supply,PIPE ADIABATIC 7 INLET WATER NODE,LARGEHOTEL KITCHEN - 90.1-2013 SERVICE WATER BOOSTER LOOP SUPPLY OUTLET NODE
 Branch List,7,LARGEHOTEL KITCHEN - 90.1-2013 SERVICE WATER BOOSTER LOOP DEMAND BRANCHES,LARGEHOTEL KITCHEN - 90.1-2013 SERVICE WATER BOOSTER LOOP,Plant Demand,5
   Branch,1,LARGEHOTEL KITCHEN - 90.1-2013 SERVICE WATER BOOSTER LOOP DEMAND INLET BRANCH,LARGEHOTEL KITCHEN - 90.1-2013 SERVICE WATER BOOSTER LOOP,Plant Demand,LARGEHOTEL KITCHEN - 90.1-2013 SERVICE WATER BOOSTER LOOP DEMAND INLET NODE,PIPE ADIABATIC 8 OUTLET WATER NODE
   Branch,2,LARGEHOTEL KITCHEN - 90.1-2013 SERVICE WATER BOOSTER LOOP DEMAND BRANCH 1,LARGEHOTEL KITCHEN - 90.1-2013 SERVICE WATER BOOSTER LOOP,Plant Demand,PIPE ADIABATIC 6 INLET WATER NODE,PIPE ADIABATIC 6 OUTLET WATER NODE
   Branch,3,LARGEHOTEL KITCHEN - 90.1-2013 SERVICE WATER BOOSTER LOOP DEMAND BRANCH 2,LARGEHOTEL KITCHEN - 90.1-2013 SERVICE WATER BOOSTER LOOP,Plant Demand,BOOSTER LARGEHOTEL KITCHEN - 90.1-2013 WUC 4.17GPM AT 180F INLET WATER NODE,BOOSTER LARGEHOTEL KITCHEN - 90.1-2013 WUC 4.17GPM AT 180F OUTLET WATER NODE
   Branch,4,LARGEHOTEL KITCHEN - 90.1-2013 SERVICE WATER BOOSTER LOOP DEMAND BYPASS BRANCH,LARGEHOTEL KITCHEN - 90.1-2013 SERVICE WATER BOOSTER LOOP,Plant Demand,LARGEHOTEL KITCHEN - 90.1-2013 SERVICE WATER BOOSTER LOOP DEMAND BYPASS PIPE INLET NODE,LARGEHOTEL KITCHEN - 90.1-2013 SERVICE WATER BOOSTER LOOP DEMAND BYPASS PIPE OUTLET NODE
   Branch,5,LARGEHOTEL KITCHEN - 90.1-2013 SERVICE WATER BOOSTER LOOP DEMAND OUTLET BRANCH,LARGEHOTEL KITCHEN - 90.1-2013 SERVICE WATER BOOSTER LOOP,Plant Demand,PIPE ADIABATIC 9 INLET WATER NODE,LARGEHOTEL KITCHEN - 90.1-2013 SERVICE WATER BOOSTER LOOP DEMAND OUTLET NODE
 Branch List,8,LARGEHOTEL KITCHEN - 90.1-2013 SERVICE WATER LOOP SUPPLY BRANCHES,LARGEHOTEL KITCHEN - 90.1-2013 SERVICE WATER LOOP,Plant Supply,4
   Branch,1,LARGEHOTEL KITCHEN - 90.1-2013 SERVICE WATER LOOP SUPPLY INLET BRANCH,LARGEHOTEL KITCHEN - 90.1-2013 SERVICE WATER LOOP,Plant Supply,LARGEHOTEL KITCHEN - 90.1-2013 SERVICE WATER LOOP SUPPLY INLET NODE,LARGEHOTEL KITCHEN - 90.1-2013 SERVICE WATER LOOP WATER MAINS PRESSURE DRIVEN OUTLET WATER NODE
   Branch,2,LARGEHOTEL KITCHEN - 90.1-2013 SERVICE WATER LOOP SUPPLY BRANCH 1,LARGEHOTEL KITCHEN - 90.1-2013 SERVICE WATER LOOP,Plant Supply,263GAL NATURALGAS WATER HEATER - 263KBTU/HR SUPPLY INLET WATER NODE,263GAL NATURALGAS WATER HEATER - 263KBTU/HR SUPPLY OUTLET WATER NODE
   Branch,3,LARGEHOTEL KITCHEN - 90.1-2013 SERVICE WATER LOOP SUPPLY BRANCH 2,LARGEHOTEL KITCHEN - 90.1-2013 SERVICE WATER LOOP,Plant Supply,PIPE ADIABATIC 1 INLET WATER NODE,PIPE ADIABATIC 1 OUTLET WATER NODE
   Branch,4,LARGEHOTEL KITCHEN - 90.1-2013 SERVICE WATER LOOP SUPPLY OUTLET BRANCH,LARGEHOTEL KITCHEN - 90.1-2013 SERVICE WATER LOOP,Plant Supply,PIPE ADIABATIC 3 INLET WATER NODE,LARGEHOTEL KITCHEN - 90.1-2013 SERVICE WATER LOOP SUPPLY OUTLET NODE
 Branch List,9,LARGEHOTEL KITCHEN - 90.1-2013 SERVICE WATER LOOP DEMAND BRANCHES,LARGEHOTEL KITCHEN - 90.1-2013 SERVICE WATER LOOP,Plant Demand,6
   Branch,1,LARGEHOTEL KITCHEN - 90.1-2013 SERVICE WATER LOOP DEMAND INLET BRANCH,LARGEHOTEL KITCHEN - 90.1-2013 SERVICE WATER LOOP,Plant Demand,LARGEHOTEL KITCHEN - 90.1-2013 SERVICE WATER LOOP DEMAND INLET NODE,LARGEHOTEL KITCHEN - 90.1-2013 SERVICE WATER LOOP PIPE 20.0FT OUTLET WATER NODE
   Branch,2,LARGEHOTEL KITCHEN - 90.1-2013 SERVICE WATER LOOP DEMAND BRANCH 1,LARGEHOTEL KITCHEN - 90.1-2013 SERVICE WATER LOOP,Plant Demand,PIPE ADIABATIC 2 INLET WATER NODE,PIPE ADIABATIC 2 OUTLET WATER NODE
   Branch,3,LARGEHOTEL KITCHEN - 90.1-2013 SERVICE WATER LOOP DEMAND BRANCH 2,LARGEHOTEL KITCHEN - 90.1-2013 SERVICE WATER LOOP,Plant Demand,LARGEHOTEL KITCHEN - 90.1-2013 WUC 2.78GPM AT 140F INLET WATER NODE,LARGEHOTEL KITCHEN - 90.1-2013 WUC 2.78GPM AT 140F OUTLET WATER NODE
   Branch,4,LARGEHOTEL KITCHEN - 90.1-2013 SERVICE WATER LOOP DEMAND BRANCH 3,LARGEHOTEL KITCHEN - 90.1-2013 SERVICE WATER LOOP,Plant Demand,HX FOR BOOSTER WATER HEATING DEMAND INLET WATER NODE,MAINS WATER MAKEUP FOR SWH BOOSTER OUTLET WATER NODE
   Branch,5,LARGEHOTEL KITCHEN - 90.1-2013 SERVICE WATER LOOP DEMAND BYPASS BRANCH,LARGEHOTEL KITCHEN - 90.1-2013 SERVICE WATER LOOP,Plant Demand,LARGEHOTEL KITCHEN - 90.1-2013 SERVICE WATER LOOP DEMAND BYPASS PIPE INLET NODE,LARGEHOTEL KITCHEN - 90.1-2013 SERVICE WATER LOOP DEMAND BYPASS PIPE OUTLET NODE
   Branch,6,LARGEHOTEL KITCHEN - 90.1-2013 SERVICE WATER LOOP DEMAND OUTLET BRANCH,LARGEHOTEL KITCHEN - 90.1-2013 SERVICE WATER LOOP,Plant Demand,PIPE ADIABATIC 4 INLET WATER NODE,LARGEHOTEL KITCHEN - 90.1-2013 SERVICE WATER LOOP DEMAND OUTLET NODE
 Branch List,10,LARGEHOTEL LAUNDRY - 90.1-2013 SERVICE WATER LOOP SUPPLY BRANCHES,LARGEHOTEL LAUNDRY - 90.1-2013 SERVICE WATER LOOP,Plant Supply,4
   Branch,1,LARGEHOTEL LAUNDRY - 90.1-2013 SERVICE WATER LOOP SUPPLY INLET BRANCH,LARGEHOTEL LAUNDRY - 90.1-2013 SERVICE WATER LOOP,Plant Supply,LARGEHOTEL LAUNDRY - 90.1-2013 SERVICE WATER LOOP SUPPLY INLET NODE,LARGEHOTEL LAUNDRY - 90.1-2013 SERVICE WATER LOOP WATER MAINS PRESSURE DRIVEN OUTLET WATER NODE
   Branch,2,LARGEHOTEL LAUNDRY - 90.1-2013 SERVICE WATER LOOP SUPPLY BRANCH 1,LARGEHOTEL LAUNDRY - 90.1-2013 SERVICE WATER LOOP,Plant Supply,517GAL ELECTRICITY WATER HEATER - 517KBTU/HR SUPPLY INLET WATER NODE,517GAL ELECTRICITY WATER HEATER - 517KBTU/HR SUPPLY OUTLET WATER NODE
   Branch,3,LARGEHOTEL LAUNDRY - 90.1-2013 SERVICE WATER LOOP SUPPLY BRANCH 2,LARGEHOTEL LAUNDRY - 90.1-2013 SERVICE WATER LOOP,Plant Supply,PIPE ADIABATIC 10 INLET WATER NODE,PIPE ADIABATIC 10 OUTLET WATER NODE
   Branch,4,LARGEHOTEL LAUNDRY - 90.1-2013 SERVICE WATER LOOP SUPPLY OUTLET BRANCH,LARGEHOTEL LAUNDRY - 90.1-2013 SERVICE WATER LOOP,Plant Supply,PIPE ADIABATIC 12 INLET WATER NODE,LARGEHOTEL LAUNDRY - 90.1-2013 SERVICE WATER LOOP SUPPLY OUTLET NODE
 Branch List,11,LARGEHOTEL LAUNDRY - 90.1-2013 SERVICE WATER LOOP DEMAND BRANCHES,LARGEHOTEL LAUNDRY - 90.1-2013 SERVICE WATER LOOP,Plant Demand,5
   Branch,1,LARGEHOTEL LAUNDRY - 90.1-2013 SERVICE WATER LOOP DEMAND INLET BRANCH,LARGEHOTEL LAUNDRY - 90.1-2013 SERVICE WATER LOOP,Plant Demand,LARGEHOTEL LAUNDRY - 90.1-2013 SERVICE WATER LOOP DEMAND INLET NODE,LARGEHOTEL LAUNDRY - 90.1-2013 SERVICE WATER LOOP PIPE 20.0FT OUTLET WATER NODE
   Branch,2,LARGEHOTEL LAUNDRY - 90.1-2013 SERVICE WATER LOOP DEMAND BRANCH 1,LARGEHOTEL LAUNDRY - 90.1-2013 SERVICE WATER LOOP,Plant Demand,PIPE ADIABATIC 11 INLET WATER NODE,PIPE ADIABATIC 11 OUTLET WATER NODE
   Branch,3,LARGEHOTEL LAUNDRY - 90.1-2013 SERVICE WATER LOOP DEMAND BRANCH 2,LARGEHOTEL LAUNDRY - 90.1-2013 SERVICE WATER LOOP,Plant Demand,LARGEHOTEL LAUNDRY - 90.1-2013 WUC 8.21GPM AT 140F INLET WATER NODE,LARGEHOTEL LAUNDRY - 90.1-2013 WUC 8.21GPM AT 140F OUTLET WATER NODE
   Branch,4,LARGEHOTEL LAUNDRY - 90.1-2013 SERVICE WATER LOOP DEMAND BYPASS BRANCH,LARGEHOTEL LAUNDRY - 90.1-2013 SERVICE WATER LOOP,Plant Demand,LARGEHOTEL LAUNDRY - 90.1-2013 SERVICE WATER LOOP DEMAND BYPASS PIPE INLET NODE,LARGEHOTEL LAUNDRY - 90.1-2013 SERVICE WATER LOOP DEMAND BYPASS PIPE OUTLET NODE
   Branch,5,LARGEHOTEL LAUNDRY - 90.1-2013 SERVICE WATER LOOP DEMAND OUTLET BRANCH,LARGEHOTEL LAUNDRY - 90.1-2013 SERVICE WATER LOOP,Plant Demand,PIPE ADIABATIC 13 INLET WATER NODE,LARGEHOTEL LAUNDRY - 90.1-2013 SERVICE WATER LOOP DEMAND OUTLET NODE
 Branch List,12,LARGEHOTEL SHARED SERVICE WATER LOOP SUPPLY BRANCHES,LARGEHOTEL SHARED SERVICE WATER LOOP,Plant Supply,4
   Branch,1,LARGEHOTEL SHARED SERVICE WATER LOOP SUPPLY INLET BRANCH,LARGEHOTEL SHARED SERVICE WATER LOOP,Plant Supply,LARGEHOTEL SHARED SERVICE WATER LOOP SUPPLY INLET NODE,LARGEHOTEL SHARED SERVICE WATER LOOP CIRCULATOR PUMP OUTLET WATER NODE
   Branch,2,LARGEHOTEL SHARED SERVICE WATER LOOP SUPPLY BRANCH 1,LARGEHOTEL SHARED SERVICE WATER LOOP,Plant Supply,392GAL ELECTRICITY WATER HEATER - 392KBTU/HR SUPPLY INLET WATER NODE,392GAL ELECTRICITY WATER HEATER - 392KBTU/HR SUPPLY OUTLET WATER NODE
   Branch,3,LARGEHOTEL SHARED SERVICE WATER LOOP SUPPLY BRANCH 2,LARGEHOTEL SHARED SERVICE WATER LOOP,Plant Supply,PIPE ADIABATIC 14 INLET WATER NODE,PIPE ADIABATIC 14 OUTLET WATER NODE
   Branch,4,LARGEHOTEL SHARED SERVICE WATER LOOP SUPPLY OUTLET BRANCH,LARGEHOTEL SHARED SERVICE WATER LOOP,Plant Supply,PIPE ADIABATIC 16 INLET WATER NODE,LARGEHOTEL SHARED SERVICE WATER LOOP SUPPLY OUTLET NODE
 Branch List,13,LARGEHOTEL SHARED SERVICE WATER LOOP DEMAND BRANCHES,LARGEHOTEL SHARED SERVICE WATER LOOP,Plant Demand,5
   Branch,1,LARGEHOTEL SHARED SERVICE WATER LOOP DEMAND INLET BRANCH,LARGEHOTEL SHARED SERVICE WATER LOOP,Plant Demand,LARGEHOTEL SHARED SERVICE WATER LOOP DEMAND INLET NODE,LARGEHOTEL SHARED SERVICE WATER LOOP PIPE 535.6177723342867FT OUTLET WATER NODE
   Branch,2,LARGEHOTEL SHARED SERVICE WATER LOOP DEMAND BRANCH 1,LARGEHOTEL SHARED SERVICE WATER LOOP,Plant Demand,PIPE ADIABATIC 15 INLET WATER NODE,PIPE ADIABATIC 15 OUTLET WATER NODE
   Branch,3,LARGEHOTEL SHARED SERVICE WATER LOOP DEMAND BRANCH 2,LARGEHOTEL SHARED SERVICE WATER LOOP,Plant Demand,LARGEHOTEL GUESTROOM - 90.1-2013 WUC 7.79GPM AT 140F INLET WATER NODE,LARGEHOTEL GUESTROOM - 90.1-2013 WUC 7.79GPM AT 140F OUTLET WATER NODE
   Branch,4,LARGEHOTEL SHARED SERVICE WATER LOOP DEMAND BYPASS BRANCH,LARGEHOTEL SHARED SERVICE WATER LOOP,Plant Demand,LARGEHOTEL SHARED SERVICE WATER LOOP DEMAND BYPASS PIPE INLET NODE,LARGEHOTEL SHARED SERVICE WATER LOOP DEMAND BYPASS PIPE OUTLET NODE
   Branch,5,LARGEHOTEL SHARED SERVICE WATER LOOP DEMAND OUTLET BRANCH,LARGEHOTEL SHARED SERVICE WATER LOOP,Plant Demand,PIPE ADIABATIC 17 INLET WATER NODE,LARGEHOTEL SHARED SERVICE WATER LOOP DEMAND OUTLET NODE
! ===============================================================
! <#Supply Air Paths>,<Number of Supply Air Paths>
 #Supply Air Paths,3
! <Supply Air Path>,<Supply Air Path Count>,<Supply Air Path Name>,<AirLoopHVAC Name>
! <#Components on Supply Air Path>,<Number of Components>
! <Supply Air Path Component>,<Component Count>,<Component Type>,<Component Name>,<AirLoopHVAC Name>
! <#Outlet Nodes on Supply Air Path Component>,<Number of Nodes>
! <Supply Air Path Component Nodes>,<Node Count>,<Component Type>,<Component Name>,<Inlet Node Name>,<Outlet Node Name>,<AirLoopHVAC Name>
 Supply Air Path,1,1 ZONE PVAV 1 ZONE PVAV DEMAND INLET NODE SUPPLY PATH,1 ZONE PVAV
   #Components on Supply Air Path,1
   Supply Air Path Component,1,AIRLOOPHVAC:ZONESPLITTER,AIR LOOP HVAC ZONE SPLITTER 1,1 ZONE PVAV
     #Outlet Nodes on Supply Air Path Component,1
     Supply Air Path Component Nodes,1,AIRLOOPHVAC:ZONESPLITTER,AIR LOOP HVAC ZONE SPLITTER 1,1 ZONE PVAV DEMAND INLET NODE,BUILDING STORY 1 THERMALZONE VAV TERMINAL INLET AIR NODE,1 ZONE PVAV
! <#Nodes on Supply Air Path>,<Number of Nodes>
! <Supply Air Path Node>,<Node Type>,<Node Count>,<Node Name>,<AirLoopHVAC Name>
#Nodes on Supply Air Path,2
   Supply Air Path Node,Inlet Node,1,1 ZONE PVAV DEMAND INLET NODE,1 ZONE PVAV
   Supply Air Path Node,Outlet Node,2,BUILDING STORY 1 THERMALZONE VAV TERMINAL INLET AIR NODE,1 ZONE PVAV
 Supply Air Path,2,1 ZONE PVAV 1 1 ZONE PVAV 1 DEMAND INLET NODE SUPPLY PATH,1 ZONE PVAV 1
   #Components on Supply Air Path,1
   Supply Air Path Component,1,AIRLOOPHVAC:ZONESPLITTER,AIR LOOP HVAC ZONE SPLITTER 2,1 ZONE PVAV 1
     #Outlet Nodes on Supply Air Path Component,1
     Supply Air Path Component Nodes,1,AIRLOOPHVAC:ZONESPLITTER,AIR LOOP HVAC ZONE SPLITTER 2,1 ZONE PVAV 1 DEMAND INLET NODE,BUILDING STORY 2 THERMALZONE VAV TERMINAL INLET AIR NODE,1 ZONE PVAV 1
! <#Nodes on Supply Air Path>,<Number of Nodes>
! <Supply Air Path Node>,<Node Type>,<Node Count>,<Node Name>,<AirLoopHVAC Name>
#Nodes on Supply Air Path,2
   Supply Air Path Node,Inlet Node,1,1 ZONE PVAV 1 DEMAND INLET NODE,1 ZONE PVAV 1
   Supply Air Path Node,Outlet Node,2,BUILDING STORY 2 THERMALZONE VAV TERMINAL INLET AIR NODE,1 ZONE PVAV 1
 Supply Air Path,3,1 ZONE PVAV 2 1 ZONE PVAV 2 DEMAND INLET NODE SUPPLY PATH,1 ZONE PVAV 2
   #Components on Supply Air Path,1
   Supply Air Path Component,1,AIRLOOPHVAC:ZONESPLITTER,AIR LOOP HVAC ZONE SPLITTER 3,1 ZONE PVAV 2
     #Outlet Nodes on Supply Air Path Component,1
     Supply Air Path Component Nodes,1,AIRLOOPHVAC:ZONESPLITTER,AIR LOOP HVAC ZONE SPLITTER 3,1 ZONE PVAV 2 DEMAND INLET NODE,BUILDING STORY 4 THERMALZONE VAV TERMINAL INLET AIR NODE,1 ZONE PVAV 2
! <#Nodes on Supply Air Path>,<Number of Nodes>
! <Supply Air Path Node>,<Node Type>,<Node Count>,<Node Name>,<AirLoopHVAC Name>
#Nodes on Supply Air Path,2
   Supply Air Path Node,Inlet Node,1,1 ZONE PVAV 2 DEMAND INLET NODE,1 ZONE PVAV 2
   Supply Air Path Node,Outlet Node,2,BUILDING STORY 4 THERMALZONE VAV TERMINAL INLET AIR NODE,1 ZONE PVAV 2
! ===============================================================
! <#Return Air Paths>,<Number of Return Air Paths>
 #Return Air Paths,3
! <Return Air Path>,<Return Air Path Count>,<Return Air Path Name>,<AirLoopHVAC Name>
! <#Components on Return Air Path>,<Number of Components>
! <Return Air Path Component>,<Component Count>,<Component Type>,<Component Name>,<AirLoopHVAC Name>
! <#Inlet Nodes on Return Air Path Component>,<Number of Nodes>
! <Return Air Path Component Nodes>,<Node Count>,<Component Type>,<Component Name>,<Inlet Node Name>,<Outlet Node Name>,<AirLoopHVAC Name>
 Return Air Path,1,1 ZONE PVAV RETURN PATH,1 ZONE PVAV
   #Components on Return Air Path,1
   Return Air Path Component,1,AIRLOOPHVAC:ZONEMIXER,AIR LOOP HVAC ZONE MIXER 1,1 ZONE PVAV
     #Inlet Nodes on Return Air Path Component,1
     Return Air Path Component Nodes,1,AIRLOOPHVAC:ZONEMIXER,AIR LOOP HVAC ZONE MIXER 1,BUILDING STORY 1 THERMALZONE RETURN AIR NODE,1 ZONE PVAV DEMAND OUTLET NODE,1 ZONE PVAV
! <#Nodes on Return Air Path>,<Number of Nodes>
! <Return Air Path Node>,<Node Type>,<Node Count>,<Node Name>,<AirLoopHVAC Name>
   #Nodes on Return Air Path,2
   Return Air Path Node,Outlet Node,1,1 ZONE PVAV DEMAND OUTLET NODE,1 ZONE PVAV
   Return Air Path Node,Inlet Node,2,BUILDING STORY 1 THERMALZONE RETURN AIR NODE,1 ZONE PVAV
 Return Air Path,2,1 ZONE PVAV 1 RETURN PATH,1 ZONE PVAV 1
   #Components on Return Air Path,1
   Return Air Path Component,1,AIRLOOPHVAC:ZONEMIXER,AIR LOOP HVAC ZONE MIXER 2,1 ZONE PVAV 1
     #Inlet Nodes on Return Air Path Component,1
     Return Air Path Component Nodes,1,AIRLOOPHVAC:ZONEMIXER,AIR LOOP HVAC ZONE MIXER 2,BUILDING STORY 2 THERMALZONE RETURN AIR NODE,1 ZONE PVAV 1 DEMAND OUTLET NODE,1 ZONE PVAV 1
! <#Nodes on Return Air Path>,<Number of Nodes>
! <Return Air Path Node>,<Node Type>,<Node Count>,<Node Name>,<AirLoopHVAC Name>
   #Nodes on Return Air Path,2
   Return Air Path Node,Outlet Node,1,1 ZONE PVAV 1 DEMAND OUTLET NODE,1 ZONE PVAV 1
   Return Air Path Node,Inlet Node,2,BUILDING STORY 2 THERMALZONE RETURN AIR NODE,1 ZONE PVAV 1
 Return Air Path,3,1 ZONE PVAV 2 RETURN PATH,1 ZONE PVAV 2
   #Components on Return Air Path,1
   Return Air Path Component,1,AIRLOOPHVAC:ZONEMIXER,AIR LOOP HVAC ZONE MIXER 3,1 ZONE PVAV 2
     #Inlet Nodes on Return Air Path Component,1
     Return Air Path Component Nodes,1,AIRLOOPHVAC:ZONEMIXER,AIR LOOP HVAC ZONE MIXER 3,BUILDING STORY 4 THERMALZONE RETURN AIR NODE,1 ZONE PVAV 2 DEMAND OUTLET NODE,1 ZONE PVAV 2
! <#Nodes on Return Air Path>,<Number of Nodes>
! <Return Air Path Node>,<Node Type>,<Node Count>,<Node Name>,<AirLoopHVAC Name>
   #Nodes on Return Air Path,2
   Return Air Path Node,Outlet Node,1,1 ZONE PVAV 2 DEMAND OUTLET NODE,1 ZONE PVAV 2
   Return Air Path Node,Inlet Node,2,BUILDING STORY 4 THERMALZONE RETURN AIR NODE,1 ZONE PVAV 2
! ===============================================================
! #Outdoor Air Nodes,<Number of Outdoor Air Nodes>
 #Outdoor Air Nodes,11
! <Outdoor Air Node>,<NodeNumber>,<Node Name>
 Outdoor Air Node,170,BUILDING STORY 10 THERMALZONE PTAC OA NODE
 Outdoor Air Node,171,BUILDING STORY 3 THERMALZONE PTAC OA NODE
 Outdoor Air Node,172,BUILDING STORY 5 THERMALZONE PTAC OA NODE
 Outdoor Air Node,173,BUILDING STORY 6 THERMALZONE PTAC OA NODE
 Outdoor Air Node,174,BUILDING STORY 7 THERMALZONE PTAC OA NODE
 Outdoor Air Node,175,BUILDING STORY 8 THERMALZONE PTAC OA NODE
 Outdoor Air Node,176,BUILDING STORY 9 THERMALZONE PTAC OA NODE
 Outdoor Air Node,177,1 ZONE PVAV OUTDOOR AIR NODE
 Outdoor Air Node,178,1 ZONE PVAV 1 OUTDOOR AIR NODE
 Outdoor Air Node,179,1 ZONE PVAV 2 OUTDOOR AIR NODE
 Outdoor Air Node,180,MODEL OUTDOOR AIR NODE
! ===============================================================
! <#Component Sets>,<Number of Component Sets>
 #Component Sets,112
! <Component Set>,<Component Set Count>,<Parent Object Type>,<Parent Object Name>,<Component Type>,<Component Name>,<Inlet Node ID>,<Outlet Node ID>,<Description>
 Component Set,1,BRANCH,1 ZONE PVAV MAIN BRANCH,AIRLOOPHVAC:OUTDOORAIRSYSTEM,1 ZONE PVAV OA SYSTEM,1 ZONE PVAV SUPPLY INLET NODE,1 ZONE PVAV MIXED AIR NODE,Air Nodes
 Component Set,2,BRANCH,1 ZONE PVAV MAIN BRANCH,COILSYSTEM:COOLING:DX,1 ZONE PVAV 2SPD DX CLG COIL COILSYSTEM,1 ZONE PVAV MIXED AIR NODE,1 ZONE PVAV 2SPD DX CLG COIL OUTLET AIR NODE,Air Nodes
 Component Set,3,BRANCH,1 ZONE PVAV MAIN BRANCH,COIL:HEATING:WATER,1 ZONE PVAV MAIN HTG COIL,1 ZONE PVAV 2SPD DX CLG COIL OUTLET AIR NODE,1 ZONE PVAV MAIN HTG COIL OUTLET AIR NODE,Air Nodes
 Component Set,4,BRANCH,1 ZONE PVAV MAIN BRANCH,FAN:VARIABLEVOLUME,1 ZONE PVAV FAN,1 ZONE PVAV MAIN HTG COIL OUTLET AIR NODE,1 ZONE PVAV SUPPLY OUTLET NODE,Air Nodes
 Component Set,5,BRANCH,1 ZONE PVAV 1 MAIN BRANCH,AIRLOOPHVAC:OUTDOORAIRSYSTEM,1 ZONE PVAV 1 OA SYSTEM,1 ZONE PVAV 1 SUPPLY INLET NODE,1 ZONE PVAV 1 MIXED AIR NODE,Air Nodes
 Component Set,6,BRANCH,1 ZONE PVAV 1 MAIN BRANCH,COILSYSTEM:COOLING:DX,1 ZONE PVAV 1 2SPD DX CLG COIL COILSYSTEM,1 ZONE PVAV 1 MIXED AIR NODE,1 ZONE PVAV 1 2SPD DX CLG COIL OUTLET AIR NODE,Air Nodes
 Component Set,7,BRANCH,1 ZONE PVAV 1 MAIN BRANCH,COIL:HEATING:WATER,1 ZONE PVAV 1 MAIN HTG COIL,1 ZONE PVAV 1 2SPD DX CLG COIL OUTLET AIR NODE,1 ZONE PVAV 1 MAIN HTG COIL OUTLET AIR NODE,Air Nodes
 Component Set,8,BRANCH,1 ZONE PVAV 1 MAIN BRANCH,FAN:VARIABLEVOLUME,1 ZONE PVAV 1 FAN,1 ZONE PVAV 1 MAIN HTG COIL OUTLET AIR NODE,1 ZONE PVAV 1 SUPPLY OUTLET NODE,Air Nodes
 Component Set,9,BRANCH,1 ZONE PVAV 2 MAIN BRANCH,AIRLOOPHVAC:OUTDOORAIRSYSTEM,1 ZONE PVAV 2 OA SYSTEM,1 ZONE PVAV 2 SUPPLY INLET NODE,1 ZONE PVAV 2 MIXED AIR NODE,Air Nodes
 Component Set,10,BRANCH,1 ZONE PVAV 2 MAIN BRANCH,COILSYSTEM:COOLING:DX,1 ZONE PVAV 2 2SPD DX CLG COIL COILSYSTEM,1 ZONE PVAV 2 MIXED AIR NODE,1 ZONE PVAV 2 2SPD DX CLG COIL OUTLET AIR NODE,Air Nodes
 Component Set,11,BRANCH,1 ZONE PVAV 2 MAIN BRANCH,COIL:HEATING:WATER,1 ZONE PVAV 2 MAIN HTG COIL,1 ZONE PVAV 2 2SPD DX CLG COIL OUTLET AIR NODE,1 ZONE PVAV 2 MAIN HTG COIL OUTLET AIR NODE,Air Nodes
 Component Set,12,BRANCH,1 ZONE PVAV 2 MAIN BRANCH,FAN:VARIABLEVOLUME,1 ZONE PVAV 2 FAN,1 ZONE PVAV 2 MAIN HTG COIL OUTLET AIR NODE,1 ZONE PVAV 2 SUPPLY OUTLET NODE,Air Nodes
 Component Set,13,BRANCH,HOT WATER LOOP SUPPLY INLET BRANCH,PUMP:VARIABLESPEED,HOT WATER LOOP PUMP,HOT WATER LOOP SUPPLY INLET NODE,HOT WATER LOOP PUMP OUTLET WATER NODE,Water Nodes
 Component Set,14,BRANCH,HOT WATER LOOP SUPPLY BRANCH 1,BOILER:HOTWATER,BOILER,BOILER INLET WATER NODE,BOILER OUTLET WATER NODE,Hot Water Nodes
 Component Set,15,BRANCH,HOT WATER LOOP SUPPLY BRANCH 2,PIPE:ADIABATIC,HOT WATER LOOP SUPPLY EQUIPMENT BYPASS,HOT WATER LOOP SUPPLY EQUIPMENT BYPASS INLET WATER NODE,HOT WATER LOOP SUPPLY EQUIPMENT BYPASS OUTLET WATER NODE,Pipe Nodes
 Component Set,16,BRANCH,HOT WATER LOOP SUPPLY OUTLET BRANCH,PIPE:ADIABATIC,HOT WATER LOOP SUPPLY OUTLET,HOT WATER LOOP SUPPLY OUTLET INLET WATER NODE,HOT WATER LOOP SUPPLY OUTLET NODE,Pipe Nodes
 Component Set,17,BRANCH,HOT WATER LOOP DEMAND INLET BRANCH,PIPE:ADIABATIC,HOT WATER LOOP DEMAND INLET,HOT WATER LOOP DEMAND INLET NODE,HOT WATER LOOP DEMAND INLET OUTLET WATER NODE,Pipe Nodes
 Component Set,18,BRANCH,HOT WATER LOOP DEMAND BRANCH 1,PIPE:ADIABATIC,HOT WATER LOOP COIL BYPASS,HOT WATER LOOP COIL BYPASS INLET WATER NODE,HOT WATER LOOP COIL BYPASS OUTLET WATER NODE,Pipe Nodes
 Component Set,19,BRANCH,HOT WATER LOOP DEMAND BRANCH 2,COIL:HEATING:WATER,1 ZONE PVAV MAIN HTG COIL,1 ZONE PVAV MAIN HTG COIL INLET WATER NODE,1 ZONE PVAV MAIN HTG COIL OUTLET WATER NODE,Water Nodes
 Component Set,20,BRANCH,HOT WATER LOOP DEMAND BRANCH 3,COIL:HEATING:WATER,BUILDING STORY 1 THERMALZONE REHEAT COIL,BUILDING STORY 1 THERMALZONE REHEAT COIL INLET WATER NODE,BUILDING STORY 1 THERMALZONE REHEAT COIL OUTLET WATER NODE,Water Nodes
 Component Set,21,BRANCH,HOT WATER LOOP DEMAND BRANCH 4,COIL:HEATING:WATER,1 ZONE PVAV 1 MAIN HTG COIL,1 ZONE PVAV 1 MAIN HTG COIL INLET WATER NODE,1 ZONE PVAV 1 MAIN HTG COIL OUTLET WATER NODE,Water Nodes
 Component Set,22,BRANCH,HOT WATER LOOP DEMAND BRANCH 5,COIL:HEATING:WATER,BUILDING STORY 2 THERMALZONE REHEAT COIL,BUILDING STORY 2 THERMALZONE REHEAT COIL INLET WATER NODE,BUILDING STORY 2 THERMALZONE REHEAT COIL OUTLET WATER NODE,Water Nodes
 Component Set,23,BRANCH,HOT WATER LOOP DEMAND BRANCH 6,COIL:HEATING:WATER,1 ZONE PVAV 2 MAIN HTG COIL,1 ZONE PVAV 2 MAIN HTG COIL INLET WATER NODE,1 ZONE PVAV 2 MAIN HTG COIL OUTLET WATER NODE,Water Nodes
 Component Set,24,BRANCH,HOT WATER LOOP DEMAND BRANCH 7,COIL:HEATING:WATER,BUILDING STORY 4 THERMALZONE REHEAT COIL,BUILDING STORY 4 THERMALZONE REHEAT COIL INLET WATER NODE,BUILDING STORY 4 THERMALZONE REHEAT COIL OUTLET WATER NODE,Water Nodes
 Component Set,25,BRANCH,HOT WATER LOOP DEMAND BRANCH 8,COIL:HEATING:WATER,HOT WATER LOOP WATER HTG COIL,HOT WATER LOOP WATER HTG COIL INLET WATER NODE,HOT WATER LOOP WATER HTG COIL OUTLET WATER NODE,Water Nodes
 Component Set,26,BRANCH,HOT WATER LOOP DEMAND BRANCH 9,COIL:HEATING:WATER,HOT WATER LOOP WATER HTG COIL 1,HOT WATER LOOP WATER HTG COIL 1 INLET WATER NODE,HOT WATER LOOP WATER HTG COIL 1 OUTLET WATER NODE,Water Nodes
 Component Set,27,BRANCH,HOT WATER LOOP DEMAND BRANCH 10,COIL:HEATING:WATER,HOT WATER LOOP WATER HTG COIL 2,HOT WATER LOOP WATER HTG COIL 2 INLET WATER NODE,HOT WATER LOOP WATER HTG COIL 2 OUTLET WATER NODE,Water Nodes
 Component Set,28,BRANCH,HOT WATER LOOP DEMAND BRANCH 11,COIL:HEATING:WATER,HOT WATER LOOP WATER HTG COIL 3,HOT WATER LOOP WATER HTG COIL 3 INLET WATER NODE,HOT WATER LOOP WATER HTG COIL 3 OUTLET WATER NODE,Water Nodes
 Component Set,29,BRANCH,HOT WATER LOOP DEMAND BRANCH 12,COIL:HEATING:WATER,HOT WATER LOOP WATER HTG COIL 4,HOT WATER LOOP WATER HTG COIL 4 INLET WATER NODE,HOT WATER LOOP WATER HTG COIL 4 OUTLET WATER NODE,Water Nodes
 Component Set,30,BRANCH,HOT WATER LOOP DEMAND BRANCH 13,COIL:HEATING:WATER,HOT WATER LOOP WATER HTG COIL 5,HOT WATER LOOP WATER HTG COIL 5 INLET WATER NODE,HOT WATER LOOP WATER HTG COIL 5 OUTLET WATER NODE,Water Nodes
 Component Set,31,BRANCH,HOT WATER LOOP DEMAND BRANCH 14,COIL:HEATING:WATER,HOT WATER LOOP WATER HTG COIL 6,HOT WATER LOOP WATER HTG COIL 6 INLET WATER NODE,HOT WATER LOOP WATER HTG COIL 6 OUTLET WATER NODE,Water Nodes
 Component Set,32,BRANCH,HOT WATER LOOP DEMAND BYPASS BRANCH,PIPE:ADIABATIC,HOT WATER LOOP DEMAND BYPASS PIPE,HOT WATER LOOP DEMAND BYPASS PIPE INLET NODE,HOT WATER LOOP DEMAND BYPASS PIPE OUTLET NODE,Pipe Nodes
 Component Set,33,BRANCH,HOT WATER LOOP DEMAND OUTLET BRANCH,PIPE:ADIABATIC,HOT WATER LOOP DEMAND OUTLET,HOT WATER LOOP DEMAND OUTLET INLET WATER NODE,HOT WATER LOOP DEMAND OUTLET NODE,Pipe Nodes
 Component Set,34,BRANCH,LARGEHOTEL KITCHEN - 90.1-2013 SERVICE WATER BOOSTER LOOP SUPPLY INLET BRANCH,HEATEXCHANGER:FLUIDTOFLUID,HX FOR BOOSTER WATER HEATING,LARGEHOTEL KITCHEN - 90.1-2013 SERVICE WATER BOOSTER LOOP SUPPLY INLET NODE,BOOSTER WATER LOOP PUMP INLET WATER NODE,Loop Supply Side Plant Nodes
 Component Set,35,BRANCH,LARGEHOTEL KITCHEN - 90.1-2013 SERVICE WATER BOOSTER LOOP SUPPLY INLET BRANCH,PUMP:VARIABLESPEED,BOOSTER WATER LOOP PUMP,BOOSTER WATER LOOP PUMP INLET WATER NODE,BOOSTER WATER LOOP PUMP OUTLET WATER NODE,Water Nodes
 Component Set,36,BRANCH,LARGEHOTEL KITCHEN - 90.1-2013 SERVICE WATER BOOSTER LOOP SUPPLY BRANCH 1,WATERHEATER:MIXED,6.0GAL ELECTRICITY BOOSTER WATER HEATER - 50KBTU/HR,6.0GAL ELECTRICITY BOOSTER WATER HEATER - 50KBTU/HR SUPPLY INLET WATER NODE,6.0GAL ELECTRICITY BOOSTER WATER HEATER - 50KBTU/HR SUPPLY OUTLET WATER NODE,Use Side Water Nodes
 Component Set,37,BRANCH,LARGEHOTEL KITCHEN - 90.1-2013 SERVICE WATER BOOSTER LOOP SUPPLY BRANCH 2,PIPE:ADIABATIC,PIPE ADIABATIC 5,PIPE ADIABATIC 5 INLET WATER NODE,PIPE ADIABATIC 5 OUTLET WATER NODE,Pipe Nodes
 Component Set,38,BRANCH,LARGEHOTEL KITCHEN - 90.1-2013 SERVICE WATER BOOSTER LOOP SUPPLY OUTLET BRANCH,PIPE:ADIABATIC,PIPE ADIABATIC 7,PIPE ADIABATIC 7 INLET WATER NODE,LARGEHOTEL KITCHEN - 90.1-2013 SERVICE WATER BOOSTER LOOP SUPPLY OUTLET NODE,Pipe Nodes
 Component Set,39,BRANCH,LARGEHOTEL KITCHEN - 90.1-2013 SERVICE WATER BOOSTER LOOP DEMAND INLET BRANCH,PIPE:ADIABATIC,PIPE ADIABATIC 8,LARGEHOTEL KITCHEN - 90.1-2013 SERVICE WATER BOOSTER LOOP DEMAND INLET NODE,PIPE ADIABATIC 8 OUTLET WATER NODE,Pipe Nodes
 Component Set,40,BRANCH,LARGEHOTEL KITCHEN - 90.1-2013 SERVICE WATER BOOSTER LOOP DEMAND BRANCH 1,PIPE:ADIABATIC,PIPE ADIABATIC 6,PIPE ADIABATIC 6 INLET WATER NODE,PIPE ADIABATIC 6 OUTLET WATER NODE,Pipe Nodes
 Component Set,41,BRANCH,LARGEHOTEL KITCHEN - 90.1-2013 SERVICE WATER BOOSTER LOOP DEMAND BRANCH 2,WATERUSE:CONNECTIONS,BOOSTER LARGEHOTEL KITCHEN - 90.1-2013 WUC 4.17GPM AT 180F,BOOSTER LARGEHOTEL KITCHEN - 90.1-2013 WUC 4.17GPM AT 180F INLET WATER NODE,BOOSTER LARGEHOTEL KITCHEN - 90.1-2013 WUC 4.17GPM AT 180F OUTLET WATER NODE,DHW Nodes
 Component Set,42,BRANCH,LARGEHOTEL KITCHEN - 90.1-2013 SERVICE WATER BOOSTER LOOP DEMAND BYPASS BRANCH,PIPE:ADIABATIC,LARGEHOTEL KITCHEN - 90.1-2013 SERVICE WATER BOOSTER LOOP DEMAND BYPASS PIPE,LARGEHOTEL KITCHEN - 90.1-2013 SERVICE WATER BOOSTER LOOP DEMAND BYPASS PIPE INLET NODE,LARGEHOTEL KITCHEN - 90.1-2013 SERVICE WATER BOOSTER LOOP DEMAND BYPASS PIPE OUTLET NODE,Pipe Nodes
 Component Set,43,BRANCH,LARGEHOTEL KITCHEN - 90.1-2013 SERVICE WATER BOOSTER LOOP DEMAND OUTLET BRANCH,PIPE:ADIABATIC,PIPE ADIABATIC 9,PIPE ADIABATIC 9 INLET WATER NODE,LARGEHOTEL KITCHEN - 90.1-2013 SERVICE WATER BOOSTER LOOP DEMAND OUTLET NODE,Pipe Nodes
 Component Set,44,BRANCH,LARGEHOTEL KITCHEN - 90.1-2013 SERVICE WATER LOOP SUPPLY INLET BRANCH,PUMP:VARIABLESPEED,LARGEHOTEL KITCHEN - 90.1-2013 SERVICE WATER LOOP WATER MAINS PRESSURE DRIVEN,LARGEHOTEL KITCHEN - 90.1-2013 SERVICE WATER LOOP SUPPLY INLET NODE,LARGEHOTEL KITCHEN - 90.1-2013 SERVICE WATER LOOP WATER MAINS PRESSURE DRIVEN OUTLET WATER NODE,Water Nodes
 Component Set,45,BRANCH,LARGEHOTEL KITCHEN - 90.1-2013 SERVICE WATER LOOP SUPPLY BRANCH 1,WATERHEATER:MIXED,263GAL NATURALGAS WATER HEATER - 263KBTU/HR,263GAL NATURALGAS WATER HEATER - 263KBTU/HR SUPPLY INLET WATER NODE,263GAL NATURALGAS WATER HEATER - 263KBTU/HR SUPPLY OUTLET WATER NODE,Use Side Water Nodes
 Component Set,46,BRANCH,LARGEHOTEL KITCHEN - 90.1-2013 SERVICE WATER LOOP SUPPLY BRANCH 2,PIPE:ADIABATIC,PIPE ADIABATIC 1,PIPE ADIABATIC 1 INLET WATER NODE,PIPE ADIABATIC 1 OUTLET WATER NODE,Pipe Nodes
 Component Set,47,BRANCH,LARGEHOTEL KITCHEN - 90.1-2013 SERVICE WATER LOOP SUPPLY OUTLET BRANCH,PIPE:ADIABATIC,PIPE ADIABATIC 3,PIPE ADIABATIC 3 INLET WATER NODE,LARGEHOTEL KITCHEN - 90.1-2013 SERVICE WATER LOOP SUPPLY OUTLET NODE,Pipe Nodes
 Component Set,48,BRANCH,LARGEHOTEL KITCHEN - 90.1-2013 SERVICE WATER LOOP DEMAND INLET BRANCH,PIPE:INDOOR,LARGEHOTEL KITCHEN - 90.1-2013 SERVICE WATER LOOP PIPE 20.0FT,LARGEHOTEL KITCHEN - 90.1-2013 SERVICE WATER LOOP DEMAND INLET NODE,LARGEHOTEL KITCHEN - 90.1-2013 SERVICE WATER LOOP PIPE 20.0FT OUTLET WATER NODE,Pipe Nodes
 Component Set,49,BRANCH,LARGEHOTEL KITCHEN - 90.1-2013 SERVICE WATER LOOP DEMAND BRANCH 1,PIPE:ADIABATIC,PIPE ADIABATIC 2,PIPE ADIABATIC 2 INLET WATER NODE,PIPE ADIABATIC 2 OUTLET WATER NODE,Pipe Nodes
 Component Set,50,BRANCH,LARGEHOTEL KITCHEN - 90.1-2013 SERVICE WATER LOOP DEMAND BRANCH 2,WATERUSE:CONNECTIONS,LARGEHOTEL KITCHEN - 90.1-2013 WUC 2.78GPM AT 140F,LARGEHOTEL KITCHEN - 90.1-2013 WUC 2.78GPM AT 140F INLET WATER NODE,LARGEHOTEL KITCHEN - 90.1-2013 WUC 2.78GPM AT 140F OUTLET WATER NODE,DHW Nodes
 Component Set,51,BRANCH,LARGEHOTEL KITCHEN - 90.1-2013 SERVICE WATER LOOP DEMAND BRANCH 3,HEATEXCHANGER:FLUIDTOFLUID,HX FOR BOOSTER WATER HEATING,HX FOR BOOSTER WATER HEATING DEMAND INLET WATER NODE,MAINS WATER MAKEUP FOR SWH BOOSTER INLET WATER NODE,Loop Demand Side Plant Nodes
 Component Set,52,BRANCH,LARGEHOTEL KITCHEN - 90.1-2013 SERVICE WATER LOOP DEMAND BRANCH 3,PLANTCOMPONENT:TEMPERATURESOURCE,MAINS WATER MAKEUP FOR SWH BOOSTER,MAINS WATER MAKEUP FOR SWH BOOSTER INLET WATER NODE,MAINS WATER MAKEUP FOR SWH BOOSTER OUTLET WATER NODE,Chilled Water Nodes
 Component Set,53,BRANCH,LARGEHOTEL KITCHEN - 90.1-2013 SERVICE WATER LOOP DEMAND BYPASS BRANCH,PIPE:ADIABATIC,LARGEHOTEL KITCHEN - 90.1-2013 SERVICE WATER LOOP DEMAND BYPASS PIPE,LARGEHOTEL KITCHEN - 90.1-2013 SERVICE WATER LOOP DEMAND BYPASS PIPE INLET NODE,LARGEHOTEL KITCHEN - 90.1-2013 SERVICE WATER LOOP DEMAND BYPASS PIPE OUTLET NODE,Pipe Nodes
 Component Set,54,BRANCH,LARGEHOTEL KITCHEN - 90.1-2013 SERVICE WATER LOOP DEMAND OUTLET BRANCH,PIPE:ADIABATIC,PIPE ADIABATIC 4,PIPE ADIABATIC 4 INLET WATER NODE,LARGEHOTEL KITCHEN - 90.1-2013 SERVICE WATER LOOP DEMAND OUTLET NODE,Pipe Nodes
 Component Set,55,BRANCH,LARGEHOTEL LAUNDRY - 90.1-2013 SERVICE WATER LOOP SUPPLY INLET BRANCH,PUMP:VARIABLESPEED,LARGEHOTEL LAUNDRY - 90.1-2013 SERVICE WATER LOOP WATER MAINS PRESSURE DRIVEN,LARGEHOTEL LAUNDRY - 90.1-2013 SERVICE WATER LOOP SUPPLY INLET NODE,LARGEHOTEL LAUNDRY - 90.1-2013 SERVICE WATER LOOP WATER MAINS PRESSURE DRIVEN OUTLET WATER NODE,Water Nodes
 Component Set,56,BRANCH,LARGEHOTEL LAUNDRY - 90.1-2013 SERVICE WATER LOOP SUPPLY BRANCH 1,WATERHEATER:MIXED,517GAL ELECTRICITY WATER HEATER - 517KBTU/HR,517GAL ELECTRICITY WATER HEATER - 517KBTU/HR SUPPLY INLET WATER NODE,517GAL ELECTRICITY WATER HEATER - 517KBTU/HR SUPPLY OUTLET WATER NODE,Use Side Water Nodes
 Component Set,57,BRANCH,LARGEHOTEL LAUNDRY - 90.1-2013 SERVICE WATER LOOP SUPPLY BRANCH 2,PIPE:ADIABATIC,PIPE ADIABATIC 10,PIPE ADIABATIC 10 INLET WATER NODE,PIPE ADIABATIC 10 OUTLET WATER NODE,Pipe Nodes
 Component Set,58,BRANCH,LARGEHOTEL LAUNDRY - 90.1-2013 SERVICE WATER LOOP SUPPLY OUTLET BRANCH,PIPE:ADIABATIC,PIPE ADIABATIC 12,PIPE ADIABATIC 12 INLET WATER NODE,LARGEHOTEL LAUNDRY - 90.1-2013 SERVICE WATER LOOP SUPPLY OUTLET NODE,Pipe Nodes
 Component Set,59,BRANCH,LARGEHOTEL LAUNDRY - 90.1-2013 SERVICE WATER LOOP DEMAND INLET BRANCH,PIPE:INDOOR,LARGEHOTEL LAUNDRY - 90.1-2013 SERVICE WATER LOOP PIPE 20.0FT,LARGEHOTEL LAUNDRY - 90.1-2013 SERVICE WATER LOOP DEMAND INLET NODE,LARGEHOTEL LAUNDRY - 90.1-2013 SERVICE WATER LOOP PIPE 20.0FT OUTLET WATER NODE,Pipe Nodes
 Component Set,60,BRANCH,LARGEHOTEL LAUNDRY - 90.1-2013 SERVICE WATER LOOP DEMAND BRANCH 1,PIPE:ADIABATIC,PIPE ADIABATIC 11,PIPE ADIABATIC 11 INLET WATER NODE,PIPE ADIABATIC 11 OUTLET WATER NODE,Pipe Nodes
 Component Set,61,BRANCH,LARGEHOTEL LAUNDRY - 90.1-2013 SERVICE WATER LOOP DEMAND BRANCH 2,WATERUSE:CONNECTIONS,LARGEHOTEL LAUNDRY - 90.1-2013 WUC 8.21GPM AT 140F,LARGEHOTEL LAUNDRY - 90.1-2013 WUC 8.21GPM AT 140F INLET WATER NODE,LARGEHOTEL LAUNDRY - 90.1-2013 WUC 8.21GPM AT 140F OUTLET WATER NODE,DHW Nodes
 Component Set,62,BRANCH,LARGEHOTEL LAUNDRY - 90.1-2013 SERVICE WATER LOOP DEMAND BYPASS BRANCH,PIPE:ADIABATIC,LARGEHOTEL LAUNDRY - 90.1-2013 SERVICE WATER LOOP DEMAND BYPASS PIPE,LARGEHOTEL LAUNDRY - 90.1-2013 SERVICE WATER LOOP DEMAND BYPASS PIPE INLET NODE,LARGEHOTEL LAUNDRY - 90.1-2013 SERVICE WATER LOOP DEMAND BYPASS PIPE OUTLET NODE,Pipe Nodes
 Component Set,63,BRANCH,LARGEHOTEL LAUNDRY - 90.1-2013 SERVICE WATER LOOP DEMAND OUTLET BRANCH,PIPE:ADIABATIC,PIPE ADIABATIC 13,PIPE ADIABATIC 13 INLET WATER NODE,LARGEHOTEL LAUNDRY - 90.1-2013 SERVICE WATER LOOP DEMAND OUTLET NODE,Pipe Nodes
 Component Set,64,BRANCH,LARGEHOTEL SHARED SERVICE WATER LOOP SUPPLY INLET BRANCH,PUMP:CONSTANTSPEED,LARGEHOTEL SHARED SERVICE WATER LOOP CIRCULATOR PUMP,LARGEHOTEL SHARED SERVICE WATER LOOP SUPPLY INLET NODE,LARGEHOTEL SHARED SERVICE WATER LOOP CIRCULATOR PUMP OUTLET WATER NODE,Water Nodes
 Component Set,65,BRANCH,LARGEHOTEL SHARED SERVICE WATER LOOP SUPPLY BRANCH 1,WATERHEATER:MIXED,392GAL ELECTRICITY WATER HEATER - 392KBTU/HR,392GAL ELECTRICITY WATER HEATER - 392KBTU/HR SUPPLY INLET WATER NODE,392GAL ELECTRICITY WATER HEATER - 392KBTU/HR SUPPLY OUTLET WATER NODE,Use Side Water Nodes
 Component Set,66,BRANCH,LARGEHOTEL SHARED SERVICE WATER LOOP SUPPLY BRANCH 2,PIPE:ADIABATIC,PIPE ADIABATIC 14,PIPE ADIABATIC 14 INLET WATER NODE,PIPE ADIABATIC 14 OUTLET WATER NODE,Pipe Nodes
 Component Set,67,BRANCH,LARGEHOTEL SHARED SERVICE WATER LOOP SUPPLY OUTLET BRANCH,PIPE:ADIABATIC,PIPE ADIABATIC 16,PIPE ADIABATIC 16 INLET WATER NODE,LARGEHOTEL SHARED SERVICE WATER LOOP SUPPLY OUTLET NODE,Pipe Nodes
 Component Set,68,BRANCH,LARGEHOTEL SHARED SERVICE WATER LOOP DEMAND INLET BRANCH,PIPE:INDOOR,LARGEHOTEL SHARED SERVICE WATER LOOP PIPE 535.6177723342867FT,LARGEHOTEL SHARED SERVICE WATER LOOP DEMAND INLET NODE,LARGEHOTEL SHARED SERVICE WATER LOOP PIPE 535.6177723342867FT OUTLET WATER NODE,Pipe Nodes
 Component Set,69,BRANCH,LARGEHOTEL SHARED SERVICE WATER LOOP DEMAND BRANCH 1,PIPE:ADIABATIC,PIPE ADIABATIC 15,PIPE ADIABATIC 15 INLET WATER NODE,PIPE ADIABATIC 15 OUTLET WATER NODE,Pipe Nodes
 Component Set,70,BRANCH,LARGEHOTEL SHARED SERVICE WATER LOOP DEMAND BRANCH 2,WATERUSE:CONNECTIONS,LARGEHOTEL GUESTROOM - 90.1-2013 WUC 7.79GPM AT 140F,LARGEHOTEL GUESTROOM - 90.1-2013 WUC 7.79GPM AT 140F INLET WATER NODE,LARGEHOTEL GUESTROOM - 90.1-2013 WUC 7.79GPM AT 140F OUTLET WATER NODE,DHW Nodes
 Component Set,71,BRANCH,LARGEHOTEL SHARED SERVICE WATER LOOP DEMAND BYPASS BRANCH,PIPE:ADIABATIC,LARGEHOTEL SHARED SERVICE WATER LOOP DEMAND BYPASS PIPE,LARGEHOTEL SHARED SERVICE WATER LOOP DEMAND BYPASS PIPE INLET NODE,LARGEHOTEL SHARED SERVICE WATER LOOP DEMAND BYPASS PIPE OUTLET NODE,Pipe Nodes
 Component Set,72,BRANCH,LARGEHOTEL SHARED SERVICE WATER LOOP DEMAND OUTLET BRANCH,PIPE:ADIABATIC,PIPE ADIABATIC 17,PIPE ADIABATIC 17 INLET WATER NODE,LARGEHOTEL SHARED SERVICE WATER LOOP DEMAND OUTLET NODE,Pipe Nodes
 Component Set,73,ZONEHVAC:AIRDISTRIBUTIONUNIT,ADU BUILDING STORY 1 THERMALZONE VAV TERMINAL,AIRTERMINAL:SINGLEDUCT:VAV:REHEAT,BUILDING STORY 1 THERMALZONE VAV TERMINAL,BUILDING STORY 1 THERMALZONE VAV TERMINAL INLET AIR NODE,BUILDING STORY 1 THERMALZONE VAV TERMINAL OUTLET AIR NODE,Air Nodes
 Component Set,74,ZONEHVAC:AIRDISTRIBUTIONUNIT,ADU BUILDING STORY 2 THERMALZONE VAV TERMINAL,AIRTERMINAL:SINGLEDUCT:VAV:REHEAT,BUILDING STORY 2 THERMALZONE VAV TERMINAL,BUILDING STORY 2 THERMALZONE VAV TERMINAL INLET AIR NODE,BUILDING STORY 2 THERMALZONE VAV TERMINAL OUTLET AIR NODE,Air Nodes
 Component Set,75,ZONEHVAC:AIRDISTRIBUTIONUNIT,ADU BUILDING STORY 4 THERMALZONE VAV TERMINAL,AIRTERMINAL:SINGLEDUCT:VAV:REHEAT,BUILDING STORY 4 THERMALZONE VAV TERMINAL,BUILDING STORY 4 THERMALZONE VAV TERMINAL INLET AIR NODE,BUILDING STORY 4 THERMALZONE VAV TERMINAL OUTLET AIR NODE,Air Nodes
 Component Set,76,AIRTERMINAL:SINGLEDUCT:VAV:REHEAT,BUILDING STORY 1 THERMALZONE VAV TERMINAL,COIL:HEATING:WATER,BUILDING STORY 1 THERMALZONE REHEAT COIL,BUILDING STORY 1 THERMALZONE VAV TERMINAL DAMPER OUTLET,BUILDING STORY 1 THERMALZONE VAV TERMINAL OUTLET AIR NODE,Air Nodes
 Component Set,77,ZONEHVAC:PACKAGEDTERMINALAIRCONDITIONER,BUILDING STORY 10 THERMALZONE PTAC,COIL:HEATING:WATER,HOT WATER LOOP WATER HTG COIL,BUILDING STORY 10 THERMALZONE PTAC COOLING COIL OUTLET NODE,BUILDING STORY 10 THERMALZONE PTAC HEATING COIL OUTLET NODE,Air Nodes
 Component Set,78,AIRTERMINAL:SINGLEDUCT:VAV:REHEAT,BUILDING STORY 2 THERMALZONE VAV TERMINAL,COIL:HEATING:WATER,BUILDING STORY 2 THERMALZONE REHEAT COIL,BUILDING STORY 2 THERMALZONE VAV TERMINAL DAMPER OUTLET,BUILDING STORY 2 THERMALZONE VAV TERMINAL OUTLET AIR NODE,Air Nodes
 Component Set,79,ZONEHVAC:PACKAGEDTERMINALAIRCONDITIONER,BUILDING STORY 3 THERMALZONE PTAC,COIL:HEATING:WATER,HOT WATER LOOP WATER HTG COIL 1,BUILDING STORY 3 THERMALZONE PTAC COOLING COIL OUTLET NODE,BUILDING STORY 3 THERMALZONE PTAC HEATING COIL OUTLET NODE,Air Nodes
 Component Set,80,AIRTERMINAL:SINGLEDUCT:VAV:REHEAT,BUILDING STORY 4 THERMALZONE VAV TERMINAL,COIL:HEATING:WATER,BUILDING STORY 4 THERMALZONE REHEAT COIL,BUILDING STORY 4 THERMALZONE VAV TERMINAL DAMPER OUTLET,BUILDING STORY 4 THERMALZONE VAV TERMINAL OUTLET AIR NODE,Air Nodes
 Component Set,81,ZONEHVAC:PACKAGEDTERMINALAIRCONDITIONER,BUILDING STORY 5 THERMALZONE PTAC,COIL:HEATING:WATER,HOT WATER LOOP WATER HTG COIL 2,BUILDING STORY 5 THERMALZONE PTAC COOLING COIL OUTLET NODE,BUILDING STORY 5 THERMALZONE PTAC HEATING COIL OUTLET NODE,Air Nodes
 Component Set,82,ZONEHVAC:PACKAGEDTERMINALAIRCONDITIONER,BUILDING STORY 6 THERMALZONE PTAC,COIL:HEATING:WATER,HOT WATER LOOP WATER HTG COIL 3,BUILDING STORY 6 THERMALZONE PTAC COOLING COIL OUTLET NODE,BUILDING STORY 6 THERMALZONE PTAC HEATING COIL OUTLET NODE,Air Nodes
 Component Set,83,ZONEHVAC:PACKAGEDTERMINALAIRCONDITIONER,BUILDING STORY 7 THERMALZONE PTAC,COIL:HEATING:WATER,HOT WATER LOOP WATER HTG COIL 4,BUILDING STORY 7 THERMALZONE PTAC COOLING COIL OUTLET NODE,BUILDING STORY 7 THERMALZONE PTAC HEATING COIL OUTLET NODE,Air Nodes
 Component Set,84,ZONEHVAC:PACKAGEDTERMINALAIRCONDITIONER,BUILDING STORY 8 THERMALZONE PTAC,COIL:HEATING:WATER,HOT WATER LOOP WATER HTG COIL 5,BUILDING STORY 8 THERMALZONE PTAC COOLING COIL OUTLET NODE,BUILDING STORY 8 THERMALZONE PTAC HEATING COIL OUTLET NODE,Air Nodes
 Component Set,85,ZONEHVAC:PACKAGEDTERMINALAIRCONDITIONER,BUILDING STORY 9 THERMALZONE PTAC,COIL:HEATING:WATER,HOT WATER LOOP WATER HTG COIL 6,BUILDING STORY 9 THERMALZONE PTAC COOLING COIL OUTLET NODE,BUILDING STORY 9 THERMALZONE PTAC HEATING COIL OUTLET NODE,Air Nodes
 Component Set,86,AIRLOOPHVAC:OUTDOORAIRSYSTEM,1 ZONE PVAV OA SYSTEM,OUTDOORAIR:MIXER,1 ZONE PVAV OA SYSTEM OUTDOOR AIR MIXER,1 ZONE PVAV OUTDOOR AIR NODE,1 ZONE PVAV MIXED AIR NODE,Air Nodes
 Component Set,87,AIRLOOPHVAC:OUTDOORAIRSYSTEM,1 ZONE PVAV 1 OA SYSTEM,OUTDOORAIR:MIXER,1 ZONE PVAV 1 OA SYSTEM OUTDOOR AIR MIXER,1 ZONE PVAV 1 OUTDOOR AIR NODE,1 ZONE PVAV 1 MIXED AIR NODE,Air Nodes
 Component Set,88,AIRLOOPHVAC:OUTDOORAIRSYSTEM,1 ZONE PVAV 2 OA SYSTEM,OUTDOORAIR:MIXER,1 ZONE PVAV 2 OA SYSTEM OUTDOOR AIR MIXER,1 ZONE PVAV 2 OUTDOOR AIR NODE,1 ZONE PVAV 2 MIXED AIR NODE,Air Nodes
 Component Set,89,ZONEHVAC:PACKAGEDTERMINALAIRCONDITIONER,BUILDING STORY 10 THERMALZONE PTAC,OUTDOORAIR:MIXER,BUILDING STORY 10 THERMALZONE PTAC OA MIXER,BUILDING STORY 10 THERMALZONE PTAC OA NODE,BUILDING STORY 10 THERMALZONE PTAC MIXED AIR NODE,Air Nodes
 Component Set,90,ZONEHVAC:PACKAGEDTERMINALAIRCONDITIONER,BUILDING STORY 3 THERMALZONE PTAC,OUTDOORAIR:MIXER,BUILDING STORY 3 THERMALZONE PTAC OA MIXER,BUILDING STORY 3 THERMALZONE PTAC OA NODE,BUILDING STORY 3 THERMALZONE PTAC MIXED AIR NODE,Air Nodes
 Component Set,91,ZONEHVAC:PACKAGEDTERMINALAIRCONDITIONER,BUILDING STORY 5 THERMALZONE PTAC,OUTDOORAIR:MIXER,BUILDING STORY 5 THERMALZONE PTAC OA MIXER,BUILDING STORY 5 THERMALZONE PTAC OA NODE,BUILDING STORY 5 THERMALZONE PTAC MIXED AIR NODE,Air Nodes
 Component Set,92,ZONEHVAC:PACKAGEDTERMINALAIRCONDITIONER,BUILDING STORY 6 THERMALZONE PTAC,OUTDOORAIR:MIXER,BUILDING STORY 6 THERMALZONE PTAC OA MIXER,BUILDING STORY 6 THERMALZONE PTAC OA NODE,BUILDING STORY 6 THERMALZONE PTAC MIXED AIR NODE,Air Nodes
 Component Set,93,ZONEHVAC:PACKAGEDTERMINALAIRCONDITIONER,BUILDING STORY 7 THERMALZONE PTAC,OUTDOORAIR:MIXER,BUILDING STORY 7 THERMALZONE PTAC OA MIXER,BUILDING STORY 7 THERMALZONE PTAC OA NODE,BUILDING STORY 7 THERMALZONE PTAC MIXED AIR NODE,Air Nodes
 Component Set,94,ZONEHVAC:PACKAGEDTERMINALAIRCONDITIONER,BUILDING STORY 8 THERMALZONE PTAC,OUTDOORAIR:MIXER,BUILDING STORY 8 THERMALZONE PTAC OA MIXER,BUILDING STORY 8 THERMALZONE PTAC OA NODE,BUILDING STORY 8 THERMALZONE PTAC MIXED AIR NODE,Air Nodes
 Component Set,95,ZONEHVAC:PACKAGEDTERMINALAIRCONDITIONER,BUILDING STORY 9 THERMALZONE PTAC,OUTDOORAIR:MIXER,BUILDING STORY 9 THERMALZONE PTAC OA MIXER,BUILDING STORY 9 THERMALZONE PTAC OA NODE,BUILDING STORY 9 THERMALZONE PTAC MIXED AIR NODE,Air Nodes
 Component Set,96,ZONEHVAC:PACKAGEDTERMINALAIRCONDITIONER,BUILDING STORY 10 THERMALZONE PTAC,FAN:CONSTANTVOLUME,BUILDING STORY 10 THERMALZONE PTAC FAN,BUILDING STORY 10 THERMALZONE PTAC HEATING COIL OUTLET NODE,BUILDING STORY 10 THERMALZONE PTAC OUTLET AIR NODE,Air Nodes
 Component Set,97,ZONEHVAC:PACKAGEDTERMINALAIRCONDITIONER,BUILDING STORY 3 THERMALZONE PTAC,FAN:CONSTANTVOLUME,BUILDING STORY 3 THERMALZONE PTAC FAN,BUILDING STORY 3 THERMALZONE PTAC HEATING COIL OUTLET NODE,BUILDING STORY 3 THERMALZONE PTAC OUTLET AIR NODE,Air Nodes
 Component Set,98,ZONEHVAC:PACKAGEDTERMINALAIRCONDITIONER,BUILDING STORY 5 THERMALZONE PTAC,FAN:CONSTANTVOLUME,BUILDING STORY 5 THERMALZONE PTAC FAN,BUILDING STORY 5 THERMALZONE PTAC HEATING COIL OUTLET NODE,BUILDING STORY 5 THERMALZONE PTAC OUTLET AIR NODE,Air Nodes
 Component Set,99,ZONEHVAC:PACKAGEDTERMINALAIRCONDITIONER,BUILDING STORY 6 THERMALZONE PTAC,FAN:CONSTANTVOLUME,BUILDING STORY 6 THERMALZONE PTAC FAN,BUILDING STORY 6 THERMALZONE PTAC HEATING COIL OUTLET NODE,BUILDING STORY 6 THERMALZONE PTAC OUTLET AIR NODE,Air Nodes
 Component Set,100,ZONEHVAC:PACKAGEDTERMINALAIRCONDITIONER,BUILDING STORY 7 THERMALZONE PTAC,FAN:CONSTANTVOLUME,BUILDING STORY 7 THERMALZONE PTAC FAN,BUILDING STORY 7 THERMALZONE PTAC HEATING COIL OUTLET NODE,BUILDING STORY 7 THERMALZONE PTAC OUTLET AIR NODE,Air Nodes
 Component Set,101,ZONEHVAC:PACKAGEDTERMINALAIRCONDITIONER,BUILDING STORY 8 THERMALZONE PTAC,FAN:CONSTANTVOLUME,BUILDING STORY 8 THERMALZONE PTAC FAN,BUILDING STORY 8 THERMALZONE PTAC HEATING COIL OUTLET NODE,BUILDING STORY 8 THERMALZONE PTAC OUTLET AIR NODE,Air Nodes
 Component Set,102,ZONEHVAC:PACKAGEDTERMINALAIRCONDITIONER,BUILDING STORY 9 THERMALZONE PTAC,FAN:CONSTANTVOLUME,BUILDING STORY 9 THERMALZONE PTAC FAN,BUILDING STORY 9 THERMALZONE PTAC HEATING COIL OUTLET NODE,BUILDING STORY 9 THERMALZONE PTAC OUTLET AIR NODE,Air Nodes
 Component Set,103,ZONEHVAC:PACKAGEDTERMINALAIRCONDITIONER,BUILDING STORY 10 THERMALZONE PTAC,COIL:COOLING:DX:SINGLESPEED,BUILDING STORY 10 THERMALZONE PTAC 1SPD DX AC CLG COIL,BUILDING STORY 10 THERMALZONE PTAC MIXED AIR NODE,BUILDING STORY 10 THERMALZONE PTAC COOLING COIL OUTLET NODE,Air Nodes
 Component Set,104,ZONEHVAC:PACKAGEDTERMINALAIRCONDITIONER,BUILDING STORY 3 THERMALZONE PTAC,COIL:COOLING:DX:SINGLESPEED,BUILDING STORY 3 THERMALZONE PTAC 1SPD DX AC CLG COIL,BUILDING STORY 3 THERMALZONE PTAC MIXED AIR NODE,BUILDING STORY 3 THERMALZONE PTAC COOLING COIL OUTLET NODE,Air Nodes
 Component Set,105,ZONEHVAC:PACKAGEDTERMINALAIRCONDITIONER,BUILDING STORY 5 THERMALZONE PTAC,COIL:COOLING:DX:SINGLESPEED,BUILDING STORY 5 THERMALZONE PTAC 1SPD DX AC CLG COIL,BUILDING STORY 5 THERMALZONE PTAC MIXED AIR NODE,BUILDING STORY 5 THERMALZONE PTAC COOLING COIL OUTLET NODE,Air Nodes
 Component Set,106,ZONEHVAC:PACKAGEDTERMINALAIRCONDITIONER,BUILDING STORY 6 THERMALZONE PTAC,COIL:COOLING:DX:SINGLESPEED,BUILDING STORY 6 THERMALZONE PTAC 1SPD DX AC CLG COIL,BUILDING STORY 6 THERMALZONE PTAC MIXED AIR NODE,BUILDING STORY 6 THERMALZONE PTAC COOLING COIL OUTLET NODE,Air Nodes
 Component Set,107,ZONEHVAC:PACKAGEDTERMINALAIRCONDITIONER,BUILDING STORY 7 THERMALZONE PTAC,COIL:COOLING:DX:SINGLESPEED,BUILDING STORY 7 THERMALZONE PTAC 1SPD DX AC CLG COIL,BUILDING STORY 7 THERMALZONE PTAC MIXED AIR NODE,BUILDING STORY 7 THERMALZONE PTAC COOLING COIL OUTLET NODE,Air Nodes
 Component Set,108,ZONEHVAC:PACKAGEDTERMINALAIRCONDITIONER,BUILDING STORY 8 THERMALZONE PTAC,COIL:COOLING:DX:SINGLESPEED,BUILDING STORY 8 THERMALZONE PTAC 1SPD DX AC CLG COIL,BUILDING STORY 8 THERMALZONE PTAC MIXED AIR NODE,BUILDING STORY 8 THERMALZONE PTAC COOLING COIL OUTLET NODE,Air Nodes
 Component Set,109,ZONEHVAC:PACKAGEDTERMINALAIRCONDITIONER,BUILDING STORY 9 THERMALZONE PTAC,COIL:COOLING:DX:SINGLESPEED,BUILDING STORY 9 THERMALZONE PTAC 1SPD DX AC CLG COIL,BUILDING STORY 9 THERMALZONE PTAC MIXED AIR NODE,BUILDING STORY 9 THERMALZONE PTAC COOLING COIL OUTLET NODE,Air Nodes
 Component Set,110,COILSYSTEM:COOLING:DX,1 ZONE PVAV 2SPD DX CLG COIL COILSYSTEM,COIL:COOLING:DX:TWOSPEED,1 ZONE PVAV 2SPD DX CLG COIL,1 ZONE PVAV MIXED AIR NODE,1 ZONE PVAV 2SPD DX CLG COIL OUTLET AIR NODE,Air Nodes
 Component Set,111,COILSYSTEM:COOLING:DX,1 ZONE PVAV 1 2SPD DX CLG COIL COILSYSTEM,COIL:COOLING:DX:TWOSPEED,1 ZONE PVAV 1 2SPD DX CLG COIL,1 ZONE PVAV 1 MIXED AIR NODE,1 ZONE PVAV 1 2SPD DX CLG COIL OUTLET AIR NODE,Air Nodes
 Component Set,112,COILSYSTEM:COOLING:DX,1 ZONE PVAV 2 2SPD DX CLG COIL COILSYSTEM,COIL:COOLING:DX:TWOSPEED,1 ZONE PVAV 2 2SPD DX CLG COIL,1 ZONE PVAV 2 MIXED AIR NODE,1 ZONE PVAV 2 2SPD DX CLG COIL OUTLET AIR NODE,Air Nodes
! ===============================================================
! <# Plant Loops>,<Number of Plant Loops>
 #Plant Loops,5
! <Plant Loop>,<Plant Loop Name>,<Loop Type>,<Inlet Node Name>,<Outlet Node Name>,<Branch List>,<Connector List>
! <Plant Loop Connector>,<Connector Type>,<Connector Name>,<Loop Name>,<Loop Type>,<Number of Inlets/Outlets>
! <Plant Loop Connector Branches>,<Connector Node Count>,<Connector Type>,<Connector Name>,<Inlet Branch>,<Outlet Branch>,<Loop Name>,<Loop Type>
! <Plant Loop Connector Nodes>,<Connector Node Count>,<Connector Type>,<Connector Name>,<Inlet Node>,<Outlet Node>,<Loop Name>,<Loop Type>
! <Plant Loop Supply Connection>,<Plant Loop Name>,<Supply Side Outlet Node Name>,<Demand Side Inlet Node Name>
! <Plant Loop Return Connection>,<Plant Loop Name>,<Demand Side Outlet Node Name>,<Supply Side Inlet Node Name>
 Plant Loop,HOT WATER LOOP,Demand,HOT WATER LOOP DEMAND INLET NODE,HOT WATER LOOP DEMAND OUTLET NODE,HOT WATER LOOP DEMAND BRANCHES,HOT WATER LOOP DEMAND CONNECTOR LIST
   Plant Loop Connector,Splitter,HOT WATER LOOP DEMAND SPLITTER,HOT WATER LOOP,Demand,15
     Plant Loop Connector Branches,1,Splitter,HOT WATER LOOP DEMAND SPLITTER,HOT WATER LOOP DEMAND INLET BRANCH,HOT WATER LOOP DEMAND BRANCH 1,HOT WATER LOOP,Demand
     Plant Loop Connector Nodes,   1,Splitter,HOT WATER LOOP DEMAND SPLITTER,HOT WATER LOOP DEMAND INLET OUTLET WATER NODE,HOT WATER LOOP COIL BYPASS INLET WATER NODE,HOT WATER LOOP,Demand
     Plant Loop Connector Branches,2,Splitter,HOT WATER LOOP DEMAND SPLITTER,HOT WATER LOOP DEMAND INLET BRANCH,HOT WATER LOOP DEMAND BRANCH 2,HOT WATER LOOP,Demand
     Plant Loop Connector Nodes,   2,Splitter,HOT WATER LOOP DEMAND SPLITTER,HOT WATER LOOP DEMAND INLET OUTLET WATER NODE,1 ZONE PVAV MAIN HTG COIL INLET WATER NODE,HOT WATER LOOP,Demand
     Plant Loop Connector Branches,3,Splitter,HOT WATER LOOP DEMAND SPLITTER,HOT WATER LOOP DEMAND INLET BRANCH,HOT WATER LOOP DEMAND BRANCH 3,HOT WATER LOOP,Demand
     Plant Loop Connector Nodes,   3,Splitter,HOT WATER LOOP DEMAND SPLITTER,HOT WATER LOOP DEMAND INLET OUTLET WATER NODE,BUILDING STORY 1 THERMALZONE REHEAT COIL INLET WATER NODE,HOT WATER LOOP,Demand
     Plant Loop Connector Branches,4,Splitter,HOT WATER LOOP DEMAND SPLITTER,HOT WATER LOOP DEMAND INLET BRANCH,HOT WATER LOOP DEMAND BRANCH 4,HOT WATER LOOP,Demand
     Plant Loop Connector Nodes,   4,Splitter,HOT WATER LOOP DEMAND SPLITTER,HOT WATER LOOP DEMAND INLET OUTLET WATER NODE,1 ZONE PVAV 1 MAIN HTG COIL INLET WATER NODE,HOT WATER LOOP,Demand
     Plant Loop Connector Branches,5,Splitter,HOT WATER LOOP DEMAND SPLITTER,HOT WATER LOOP DEMAND INLET BRANCH,HOT WATER LOOP DEMAND BRANCH 5,HOT WATER LOOP,Demand
     Plant Loop Connector Nodes,   5,Splitter,HOT WATER LOOP DEMAND SPLITTER,HOT WATER LOOP DEMAND INLET OUTLET WATER NODE,BUILDING STORY 2 THERMALZONE REHEAT COIL INLET WATER NODE,HOT WATER LOOP,Demand
     Plant Loop Connector Branches,6,Splitter,HOT WATER LOOP DEMAND SPLITTER,HOT WATER LOOP DEMAND INLET BRANCH,HOT WATER LOOP DEMAND BRANCH 6,HOT WATER LOOP,Demand
     Plant Loop Connector Nodes,   6,Splitter,HOT WATER LOOP DEMAND SPLITTER,HOT WATER LOOP DEMAND INLET OUTLET WATER NODE,1 ZONE PVAV 2 MAIN HTG COIL INLET WATER NODE,HOT WATER LOOP,Demand
     Plant Loop Connector Branches,7,Splitter,HOT WATER LOOP DEMAND SPLITTER,HOT WATER LOOP DEMAND INLET BRANCH,HOT WATER LOOP DEMAND BRANCH 7,HOT WATER LOOP,Demand
     Plant Loop Connector Nodes,   7,Splitter,HOT WATER LOOP DEMAND SPLITTER,HOT WATER LOOP DEMAND INLET OUTLET WATER NODE,BUILDING STORY 4 THERMALZONE REHEAT COIL INLET WATER NODE,HOT WATER LOOP,Demand
     Plant Loop Connector Branches,8,Splitter,HOT WATER LOOP DEMAND SPLITTER,HOT WATER LOOP DEMAND INLET BRANCH,HOT WATER LOOP DEMAND BRANCH 8,HOT WATER LOOP,Demand
     Plant Loop Connector Nodes,   8,Splitter,HOT WATER LOOP DEMAND SPLITTER,HOT WATER LOOP DEMAND INLET OUTLET WATER NODE,HOT WATER LOOP WATER HTG COIL INLET WATER NODE,HOT WATER LOOP,Demand
     Plant Loop Connector Branches,9,Splitter,HOT WATER LOOP DEMAND SPLITTER,HOT WATER LOOP DEMAND INLET BRANCH,HOT WATER LOOP DEMAND BRANCH 9,HOT WATER LOOP,Demand
     Plant Loop Connector Nodes,   9,Splitter,HOT WATER LOOP DEMAND SPLITTER,HOT WATER LOOP DEMAND INLET OUTLET WATER NODE,HOT WATER LOOP WATER HTG COIL 1 INLET WATER NODE,HOT WATER LOOP,Demand
     Plant Loop Connector Branches,10,Splitter,HOT WATER LOOP DEMAND SPLITTER,HOT WATER LOOP DEMAND INLET BRANCH,HOT WATER LOOP DEMAND BRANCH 10,HOT WATER LOOP,Demand
     Plant Loop Connector Nodes,   10,Splitter,HOT WATER LOOP DEMAND SPLITTER,HOT WATER LOOP DEMAND INLET OUTLET WATER NODE,HOT WATER LOOP WATER HTG COIL 2 INLET WATER NODE,HOT WATER LOOP,Demand
     Plant Loop Connector Branches,11,Splitter,HOT WATER LOOP DEMAND SPLITTER,HOT WATER LOOP DEMAND INLET BRANCH,HOT WATER LOOP DEMAND BRANCH 11,HOT WATER LOOP,Demand
     Plant Loop Connector Nodes,   11,Splitter,HOT WATER LOOP DEMAND SPLITTER,HOT WATER LOOP DEMAND INLET OUTLET WATER NODE,HOT WATER LOOP WATER HTG COIL 3 INLET WATER NODE,HOT WATER LOOP,Demand
     Plant Loop Connector Branches,12,Splitter,HOT WATER LOOP DEMAND SPLITTER,HOT WATER LOOP DEMAND INLET BRANCH,HOT WATER LOOP DEMAND BRANCH 12,HOT WATER LOOP,Demand
     Plant Loop Connector Nodes,   12,Splitter,HOT WATER LOOP DEMAND SPLITTER,HOT WATER LOOP DEMAND INLET OUTLET WATER NODE,HOT WATER LOOP WATER HTG COIL 4 INLET WATER NODE,HOT WATER LOOP,Demand
     Plant Loop Connector Branches,13,Splitter,HOT WATER LOOP DEMAND SPLITTER,HOT WATER LOOP DEMAND INLET BRANCH,HOT WATER LOOP DEMAND BRANCH 13,HOT WATER LOOP,Demand
     Plant Loop Connector Nodes,   13,Splitter,HOT WATER LOOP DEMAND SPLITTER,HOT WATER LOOP DEMAND INLET OUTLET WATER NODE,HOT WATER LOOP WATER HTG COIL 5 INLET WATER NODE,HOT WATER LOOP,Demand
     Plant Loop Connector Branches,14,Splitter,HOT WATER LOOP DEMAND SPLITTER,HOT WATER LOOP DEMAND INLET BRANCH,HOT WATER LOOP DEMAND BRANCH 14,HOT WATER LOOP,Demand
     Plant Loop Connector Nodes,   14,Splitter,HOT WATER LOOP DEMAND SPLITTER,HOT WATER LOOP DEMAND INLET OUTLET WATER NODE,HOT WATER LOOP WATER HTG COIL 6 INLET WATER NODE,HOT WATER LOOP,Demand
     Plant Loop Connector Branches,15,Splitter,HOT WATER LOOP DEMAND SPLITTER,HOT WATER LOOP DEMAND INLET BRANCH,HOT WATER LOOP DEMAND BYPASS BRANCH,HOT WATER LOOP,Demand
     Plant Loop Connector Nodes,   15,Splitter,HOT WATER LOOP DEMAND SPLITTER,HOT WATER LOOP DEMAND INLET OUTLET WATER NODE,HOT WATER LOOP DEMAND BYPASS PIPE INLET NODE,HOT WATER LOOP,Demand
   Plant Loop Connector,Mixer,HOT WATER LOOP DEMAND MIXER,HOT WATER LOOP,Demand,15
     Plant Loop Connector Branches,1,Mixer,HOT WATER LOOP DEMAND MIXER,HOT WATER LOOP DEMAND BRANCH 1,HOT WATER LOOP DEMAND OUTLET BRANCH,HOT WATER LOOP,Demand
     Plant Loop Connector Nodes,   1,Mixer,HOT WATER LOOP DEMAND MIXER,HOT WATER LOOP COIL BYPASS OUTLET WATER NODE,HOT WATER LOOP DEMAND OUTLET INLET WATER NODE,HOT WATER LOOP,Demand
     Plant Loop Connector Branches,2,Mixer,HOT WATER LOOP DEMAND MIXER,HOT WATER LOOP DEMAND BRANCH 2,HOT WATER LOOP DEMAND OUTLET BRANCH,HOT WATER LOOP,Demand
     Plant Loop Connector Nodes,   2,Mixer,HOT WATER LOOP DEMAND MIXER,1 ZONE PVAV MAIN HTG COIL OUTLET WATER NODE,HOT WATER LOOP DEMAND OUTLET INLET WATER NODE,HOT WATER LOOP,Demand
     Plant Loop Connector Branches,3,Mixer,HOT WATER LOOP DEMAND MIXER,HOT WATER LOOP DEMAND BRANCH 3,HOT WATER LOOP DEMAND OUTLET BRANCH,HOT WATER LOOP,Demand
     Plant Loop Connector Nodes,   3,Mixer,HOT WATER LOOP DEMAND MIXER,BUILDING STORY 1 THERMALZONE REHEAT COIL OUTLET WATER NODE,HOT WATER LOOP DEMAND OUTLET INLET WATER NODE,HOT WATER LOOP,Demand
     Plant Loop Connector Branches,4,Mixer,HOT WATER LOOP DEMAND MIXER,HOT WATER LOOP DEMAND BRANCH 4,HOT WATER LOOP DEMAND OUTLET BRANCH,HOT WATER LOOP,Demand
     Plant Loop Connector Nodes,   4,Mixer,HOT WATER LOOP DEMAND MIXER,1 ZONE PVAV 1 MAIN HTG COIL OUTLET WATER NODE,HOT WATER LOOP DEMAND OUTLET INLET WATER NODE,HOT WATER LOOP,Demand
     Plant Loop Connector Branches,5,Mixer,HOT WATER LOOP DEMAND MIXER,HOT WATER LOOP DEMAND BRANCH 5,HOT WATER LOOP DEMAND OUTLET BRANCH,HOT WATER LOOP,Demand
     Plant Loop Connector Nodes,   5,Mixer,HOT WATER LOOP DEMAND MIXER,BUILDING STORY 2 THERMALZONE REHEAT COIL OUTLET WATER NODE,HOT WATER LOOP DEMAND OUTLET INLET WATER NODE,HOT WATER LOOP,Demand
     Plant Loop Connector Branches,6,Mixer,HOT WATER LOOP DEMAND MIXER,HOT WATER LOOP DEMAND BRANCH 6,HOT WATER LOOP DEMAND OUTLET BRANCH,HOT WATER LOOP,Demand
     Plant Loop Connector Nodes,   6,Mixer,HOT WATER LOOP DEMAND MIXER,1 ZONE PVAV 2 MAIN HTG COIL OUTLET WATER NODE,HOT WATER LOOP DEMAND OUTLET INLET WATER NODE,HOT WATER LOOP,Demand
     Plant Loop Connector Branches,7,Mixer,HOT WATER LOOP DEMAND MIXER,HOT WATER LOOP DEMAND BRANCH 7,HOT WATER LOOP DEMAND OUTLET BRANCH,HOT WATER LOOP,Demand
     Plant Loop Connector Nodes,   7,Mixer,HOT WATER LOOP DEMAND MIXER,BUILDING STORY 4 THERMALZONE REHEAT COIL OUTLET WATER NODE,HOT WATER LOOP DEMAND OUTLET INLET WATER NODE,HOT WATER LOOP,Demand
     Plant Loop Connector Branches,8,Mixer,HOT WATER LOOP DEMAND MIXER,HOT WATER LOOP DEMAND BRANCH 8,HOT WATER LOOP DEMAND OUTLET BRANCH,HOT WATER LOOP,Demand
     Plant Loop Connector Nodes,   8,Mixer,HOT WATER LOOP DEMAND MIXER,HOT WATER LOOP WATER HTG COIL OUTLET WATER NODE,HOT WATER LOOP DEMAND OUTLET INLET WATER NODE,HOT WATER LOOP,Demand
     Plant Loop Connector Branches,9,Mixer,HOT WATER LOOP DEMAND MIXER,HOT WATER LOOP DEMAND BRANCH 9,HOT WATER LOOP DEMAND OUTLET BRANCH,HOT WATER LOOP,Demand
     Plant Loop Connector Nodes,   9,Mixer,HOT WATER LOOP DEMAND MIXER,HOT WATER LOOP WATER HTG COIL 1 OUTLET WATER NODE,HOT WATER LOOP DEMAND OUTLET INLET WATER NODE,HOT WATER LOOP,Demand
     Plant Loop Connector Branches,10,Mixer,HOT WATER LOOP DEMAND MIXER,HOT WATER LOOP DEMAND BRANCH 10,HOT WATER LOOP DEMAND OUTLET BRANCH,HOT WATER LOOP,Demand
     Plant Loop Connector Nodes,   10,Mixer,HOT WATER LOOP DEMAND MIXER,HOT WATER LOOP WATER HTG COIL 2 OUTLET WATER NODE,HOT WATER LOOP DEMAND OUTLET INLET WATER NODE,HOT WATER LOOP,Demand
     Plant Loop Connector Branches,11,Mixer,HOT WATER LOOP DEMAND MIXER,HOT WATER LOOP DEMAND BRANCH 11,HOT WATER LOOP DEMAND OUTLET BRANCH,HOT WATER LOOP,Demand
     Plant Loop Connector Nodes,   11,Mixer,HOT WATER LOOP DEMAND MIXER,HOT WATER LOOP WATER HTG COIL 3 OUTLET WATER NODE,HOT WATER LOOP DEMAND OUTLET INLET WATER NODE,HOT WATER LOOP,Demand
     Plant Loop Connector Branches,12,Mixer,HOT WATER LOOP DEMAND MIXER,HOT WATER LOOP DEMAND BRANCH 12,HOT WATER LOOP DEMAND OUTLET BRANCH,HOT WATER LOOP,Demand
     Plant Loop Connector Nodes,   12,Mixer,HOT WATER LOOP DEMAND MIXER,HOT WATER LOOP WATER HTG COIL 4 OUTLET WATER NODE,HOT WATER LOOP DEMAND OUTLET INLET WATER NODE,HOT WATER LOOP,Demand
     Plant Loop Connector Branches,13,Mixer,HOT WATER LOOP DEMAND MIXER,HOT WATER LOOP DEMAND BRANCH 13,HOT WATER LOOP DEMAND OUTLET BRANCH,HOT WATER LOOP,Demand
     Plant Loop Connector Nodes,   13,Mixer,HOT WATER LOOP DEMAND MIXER,HOT WATER LOOP WATER HTG COIL 5 OUTLET WATER NODE,HOT WATER LOOP DEMAND OUTLET INLET WATER NODE,HOT WATER LOOP,Demand
     Plant Loop Connector Branches,14,Mixer,HOT WATER LOOP DEMAND MIXER,HOT WATER LOOP DEMAND BRANCH 14,HOT WATER LOOP DEMAND OUTLET BRANCH,HOT WATER LOOP,Demand
     Plant Loop Connector Nodes,   14,Mixer,HOT WATER LOOP DEMAND MIXER,HOT WATER LOOP WATER HTG COIL 6 OUTLET WATER NODE,HOT WATER LOOP DEMAND OUTLET INLET WATER NODE,HOT WATER LOOP,Demand
     Plant Loop Connector Branches,15,Mixer,HOT WATER LOOP DEMAND MIXER,HOT WATER LOOP DEMAND BYPASS BRANCH,HOT WATER LOOP DEMAND OUTLET BRANCH,HOT WATER LOOP,Demand
     Plant Loop Connector Nodes,   15,Mixer,HOT WATER LOOP DEMAND MIXER,HOT WATER LOOP DEMAND BYPASS PIPE OUTLET NODE,HOT WATER LOOP DEMAND OUTLET INLET WATER NODE,HOT WATER LOOP,Demand
 Plant Loop,HOT WATER LOOP,Supply,HOT WATER LOOP SUPPLY INLET NODE,HOT WATER LOOP SUPPLY OUTLET NODE,HOT WATER LOOP SUPPLY BRANCHES,HOT WATER LOOP SUPPLY CONNECTOR LIST
   Plant Loop Connector,Splitter,HOT WATER LOOP SUPPLY SPLITTER,HOT WATER LOOP,Supply,2
     Plant Loop Connector Branches,1,Splitter,HOT WATER LOOP SUPPLY SPLITTER,HOT WATER LOOP SUPPLY INLET BRANCH,HOT WATER LOOP SUPPLY BRANCH 1,HOT WATER LOOP,Supply
     Plant Loop Connector Nodes,   1,Splitter,HOT WATER LOOP SUPPLY SPLITTER,HOT WATER LOOP PUMP OUTLET WATER NODE,BOILER INLET WATER NODE,HOT WATER LOOP,Supply
     Plant Loop Connector Branches,2,Splitter,HOT WATER LOOP SUPPLY SPLITTER,HOT WATER LOOP SUPPLY INLET BRANCH,HOT WATER LOOP SUPPLY BRANCH 2,HOT WATER LOOP,Supply
     Plant Loop Connector Nodes,   2,Splitter,HOT WATER LOOP SUPPLY SPLITTER,HOT WATER LOOP PUMP OUTLET WATER NODE,HOT WATER LOOP SUPPLY EQUIPMENT BYPASS INLET WATER NODE,HOT WATER LOOP,Supply
[...]
 Non-Parent Node Connection,BUILDING STORY 9 THERMALZONE PTAC COOLING COIL OUTLET NODE,COIL:HEATING:WATER,HOT WATER LOOP WATER HTG COIL 6,Inlet,1
 Non-Parent Node Connection,BUILDING STORY 9 THERMALZONE PTAC HEATING COIL OUTLET NODE,COIL:HEATING:WATER,HOT WATER LOOP WATER HTG COIL 6,Outlet,1
 Non-Parent Node Connection,1 ZONE PVAV MAIN HTG COIL INLET WATER NODE,COIL:HEATING:WATER,1 ZONE PVAV MAIN HTG COIL,Inlet,2
 Non-Parent Node Connection,1 ZONE PVAV MAIN HTG COIL OUTLET WATER NODE,COIL:HEATING:WATER,1 ZONE PVAV MAIN HTG COIL,Outlet,2
 Non-Parent Node Connection,1 ZONE PVAV 2SPD DX CLG COIL OUTLET AIR NODE,COIL:HEATING:WATER,1 ZONE PVAV MAIN HTG COIL,Inlet,1
 Non-Parent Node Connection,1 ZONE PVAV MAIN HTG COIL OUTLET AIR NODE,COIL:HEATING:WATER,1 ZONE PVAV MAIN HTG COIL,Outlet,1
 Non-Parent Node Connection,1 ZONE PVAV 1 MAIN HTG COIL INLET WATER NODE,COIL:HEATING:WATER,1 ZONE PVAV 1 MAIN HTG COIL,Inlet,2
 Non-Parent Node Connection,1 ZONE PVAV 1 MAIN HTG COIL OUTLET WATER NODE,COIL:HEATING:WATER,1 ZONE PVAV 1 MAIN HTG COIL,Outlet,2
 Non-Parent Node Connection,1 ZONE PVAV 1 2SPD DX CLG COIL OUTLET AIR NODE,COIL:HEATING:WATER,1 ZONE PVAV 1 MAIN HTG COIL,Inlet,1
 Non-Parent Node Connection,1 ZONE PVAV 1 MAIN HTG COIL OUTLET AIR NODE,COIL:HEATING:WATER,1 ZONE PVAV 1 MAIN HTG COIL,Outlet,1
 Non-Parent Node Connection,1 ZONE PVAV 2 MAIN HTG COIL INLET WATER NODE,COIL:HEATING:WATER,1 ZONE PVAV 2 MAIN HTG COIL,Inlet,2
 Non-Parent Node Connection,1 ZONE PVAV 2 MAIN HTG COIL OUTLET WATER NODE,COIL:HEATING:WATER,1 ZONE PVAV 2 MAIN HTG COIL,Outlet,2
 Non-Parent Node Connection,1 ZONE PVAV 2 2SPD DX CLG COIL OUTLET AIR NODE,COIL:HEATING:WATER,1 ZONE PVAV 2 MAIN HTG COIL,Inlet,1
 Non-Parent Node Connection,1 ZONE PVAV 2 MAIN HTG COIL OUTLET AIR NODE,COIL:HEATING:WATER,1 ZONE PVAV 2 MAIN HTG COIL,Outlet,1
 Non-Parent Node Connection,BUILDING STORY 2 THERMALZONE VAV TERMINAL DAMPER OUTLET,AIRTERMINAL:SINGLEDUCT:VAV:REHEAT,BUILDING STORY 2 THERMALZONE VAV TERMINAL,Outlet,1
 Non-Parent Node Connection,BUILDING STORY 2 THERMALZONE VAV TERMINAL INLET AIR NODE,AIRTERMINAL:SINGLEDUCT:VAV:REHEAT,BUILDING STORY 2 THERMALZONE VAV TERMINAL,Inlet,1
 Non-Parent Node Connection,BUILDING STORY 4 THERMALZONE VAV TERMINAL DAMPER OUTLET,AIRTERMINAL:SINGLEDUCT:VAV:REHEAT,BUILDING STORY 4 THERMALZONE VAV TERMINAL,Outlet,1
 Non-Parent Node Connection,BUILDING STORY 4 THERMALZONE VAV TERMINAL INLET AIR NODE,AIRTERMINAL:SINGLEDUCT:VAV:REHEAT,BUILDING STORY 4 THERMALZONE VAV TERMINAL,Inlet,1
 Non-Parent Node Connection,1 ZONE PVAV MAIN HTG COIL OUTLET AIR NODE,CONTROLLER:WATERCOIL,1 ZONE PVAV MAIN HTG COIL CONTROLLER,Sensor,1
 Non-Parent Node Connection,1 ZONE PVAV MAIN HTG COIL INLET WATER NODE,CONTROLLER:WATERCOIL,1 ZONE PVAV MAIN HTG COIL CONTROLLER,Actuator,1
 Non-Parent Node Connection,1 ZONE PVAV 1 MAIN HTG COIL OUTLET AIR NODE,CONTROLLER:WATERCOIL,1 ZONE PVAV 1 MAIN HTG COIL CONTROLLER,Sensor,1
 Non-Parent Node Connection,1 ZONE PVAV 1 MAIN HTG COIL INLET WATER NODE,CONTROLLER:WATERCOIL,1 ZONE PVAV 1 MAIN HTG COIL CONTROLLER,Actuator,1
 Non-Parent Node Connection,1 ZONE PVAV 2 MAIN HTG COIL OUTLET AIR NODE,CONTROLLER:WATERCOIL,1 ZONE PVAV 2 MAIN HTG COIL CONTROLLER,Sensor,1
 Non-Parent Node Connection,1 ZONE PVAV 2 MAIN HTG COIL INLET WATER NODE,CONTROLLER:WATERCOIL,1 ZONE PVAV 2 MAIN HTG COIL CONTROLLER,Actuator,1
 Non-Parent Node Connection,BUILDING STORY 10 THERMALZONE PTAC MIXED AIR NODE,OUTDOORAIR:MIXER,BUILDING STORY 10 THERMALZONE PTAC OA MIXER,Outlet,1
 Non-Parent Node Connection,BUILDING STORY 10 THERMALZONE PTAC OA NODE,OUTDOORAIR:MIXER,BUILDING STORY 10 THERMALZONE PTAC OA MIXER,Inlet,1
 Non-Parent Node Connection,BUILDING STORY 10 THERMALZONE PTAC RELIEF AIR NODE,OUTDOORAIR:MIXER,BUILDING STORY 10 THERMALZONE PTAC OA MIXER,ReliefAir,1
 Non-Parent Node Connection,BUILDING STORY 10 THERMALZONE PTAC INLET AIR NODE,OUTDOORAIR:MIXER,BUILDING STORY 10 THERMALZONE PTAC OA MIXER,Inlet,1
 Non-Parent Node Connection,BUILDING STORY 3 THERMALZONE PTAC MIXED AIR NODE,OUTDOORAIR:MIXER,BUILDING STORY 3 THERMALZONE PTAC OA MIXER,Outlet,1
 Non-Parent Node Connection,BUILDING STORY 3 THERMALZONE PTAC OA NODE,OUTDOORAIR:MIXER,BUILDING STORY 3 THERMALZONE PTAC OA MIXER,Inlet,1
 Non-Parent Node Connection,BUILDING STORY 3 THERMALZONE PTAC RELIEF AIR NODE,OUTDOORAIR:MIXER,BUILDING STORY 3 THERMALZONE PTAC OA MIXER,ReliefAir,1
 Non-Parent Node Connection,BUILDING STORY 3 THERMALZONE PTAC INLET AIR NODE,OUTDOORAIR:MIXER,BUILDING STORY 3 THERMALZONE PTAC OA MIXER,Inlet,1
 Non-Parent Node Connection,BUILDING STORY 5 THERMALZONE PTAC MIXED AIR NODE,OUTDOORAIR:MIXER,BUILDING STORY 5 THERMALZONE PTAC OA MIXER,Outlet,1
 Non-Parent Node Connection,BUILDING STORY 5 THERMALZONE PTAC OA NODE,OUTDOORAIR:MIXER,BUILDING STORY 5 THERMALZONE PTAC OA MIXER,Inlet,1
 Non-Parent Node Connection,BUILDING STORY 5 THERMALZONE PTAC RELIEF AIR NODE,OUTDOORAIR:MIXER,BUILDING STORY 5 THERMALZONE PTAC OA MIXER,ReliefAir,1
 Non-Parent Node Connection,BUILDING STORY 5 THERMALZONE PTAC INLET AIR NODE,OUTDOORAIR:MIXER,BUILDING STORY 5 THERMALZONE PTAC OA MIXER,Inlet,1
 Non-Parent Node Connection,BUILDING STORY 6 THERMALZONE PTAC MIXED AIR NODE,OUTDOORAIR:MIXER,BUILDING STORY 6 THERMALZONE PTAC OA MIXER,Outlet,1
 Non-Parent Node Connection,BUILDING STORY 6 THERMALZONE PTAC OA NODE,OUTDOORAIR:MIXER,BUILDING STORY 6 THERMALZONE PTAC OA MIXER,Inlet,1
 Non-Parent Node Connection,BUILDING STORY 6 THERMALZONE PTAC RELIEF AIR NODE,OUTDOORAIR:MIXER,BUILDING STORY 6 THERMALZONE PTAC OA MIXER,ReliefAir,1
 Non-Parent Node Connection,BUILDING STORY 6 THERMALZONE PTAC INLET AIR NODE,OUTDOORAIR:MIXER,BUILDING STORY 6 THERMALZONE PTAC OA MIXER,Inlet,1
 Non-Parent Node Connection,BUILDING STORY 7 THERMALZONE PTAC MIXED AIR NODE,OUTDOORAIR:MIXER,BUILDING STORY 7 THERMALZONE PTAC OA MIXER,Outlet,1
 Non-Parent Node Connection,BUILDING STORY 7 THERMALZONE PTAC OA NODE,OUTDOORAIR:MIXER,BUILDING STORY 7 THERMALZONE PTAC OA MIXER,Inlet,1
 Non-Parent Node Connection,BUILDING STORY 7 THERMALZONE PTAC RELIEF AIR NODE,OUTDOORAIR:MIXER,BUILDING STORY 7 THERMALZONE PTAC OA MIXER,ReliefAir,1
 Non-Parent Node Connection,BUILDING STORY 7 THERMALZONE PTAC INLET AIR NODE,OUTDOORAIR:MIXER,BUILDING STORY 7 THERMALZONE PTAC OA MIXER,Inlet,1
 Non-Parent Node Connection,BUILDING STORY 8 THERMALZONE PTAC MIXED AIR NODE,OUTDOORAIR:MIXER,BUILDING STORY 8 THERMALZONE PTAC OA MIXER,Outlet,1
 Non-Parent Node Connection,BUILDING STORY 8 THERMALZONE PTAC OA NODE,OUTDOORAIR:MIXER,BUILDING STORY 8 THERMALZONE PTAC OA MIXER,Inlet,1
 Non-Parent Node Connection,BUILDING STORY 8 THERMALZONE PTAC RELIEF AIR NODE,OUTDOORAIR:MIXER,BUILDING STORY 8 THERMALZONE PTAC OA MIXER,ReliefAir,1
 Non-Parent Node Connection,BUILDING STORY 8 THERMALZONE PTAC INLET AIR NODE,OUTDOORAIR:MIXER,BUILDING STORY 8 THERMALZONE PTAC OA MIXER,Inlet,1
 Non-Parent Node Connection,BUILDING STORY 9 THERMALZONE PTAC MIXED AIR NODE,OUTDOORAIR:MIXER,BUILDING STORY 9 THERMALZONE PTAC OA MIXER,Outlet,1
 Non-Parent Node Connection,BUILDING STORY 9 THERMALZONE PTAC OA NODE,OUTDOORAIR:MIXER,BUILDING STORY 9 THERMALZONE PTAC OA MIXER,Inlet,1
 Non-Parent Node Connection,BUILDING STORY 9 THERMALZONE PTAC RELIEF AIR NODE,OUTDOORAIR:MIXER,BUILDING STORY 9 THERMALZONE PTAC OA MIXER,ReliefAir,1
 Non-Parent Node Connection,BUILDING STORY 9 THERMALZONE PTAC INLET AIR NODE,OUTDOORAIR:MIXER,BUILDING STORY 9 THERMALZONE PTAC OA MIXER,Inlet,1
 Non-Parent Node Connection,1 ZONE PVAV MIXED AIR NODE,OUTDOORAIR:MIXER,1 ZONE PVAV OA SYSTEM OUTDOOR AIR MIXER,Outlet,1
 Non-Parent Node Connection,1 ZONE PVAV OUTDOOR AIR NODE,OUTDOORAIR:MIXER,1 ZONE PVAV OA SYSTEM OUTDOOR AIR MIXER,Inlet,1
 Non-Parent Node Connection,1 ZONE PVAV RELIEF AIR NODE,OUTDOORAIR:MIXER,1 ZONE PVAV OA SYSTEM OUTDOOR AIR MIXER,ReliefAir,1
 Non-Parent Node Connection,1 ZONE PVAV SUPPLY INLET NODE,OUTDOORAIR:MIXER,1 ZONE PVAV OA SYSTEM OUTDOOR AIR MIXER,Inlet,1
 Non-Parent Node Connection,1 ZONE PVAV 1 MIXED AIR NODE,OUTDOORAIR:MIXER,1 ZONE PVAV 1 OA SYSTEM OUTDOOR AIR MIXER,Outlet,1
 Non-Parent Node Connection,1 ZONE PVAV 1 OUTDOOR AIR NODE,OUTDOORAIR:MIXER,1 ZONE PVAV 1 OA SYSTEM OUTDOOR AIR MIXER,Inlet,1
 Non-Parent Node Connection,1 ZONE PVAV 1 RELIEF AIR NODE,OUTDOORAIR:MIXER,1 ZONE PVAV 1 OA SYSTEM OUTDOOR AIR MIXER,ReliefAir,1
 Non-Parent Node Connection,1 ZONE PVAV 1 SUPPLY INLET NODE,OUTDOORAIR:MIXER,1 ZONE PVAV 1 OA SYSTEM OUTDOOR AIR MIXER,Inlet,1
 Non-Parent Node Connection,1 ZONE PVAV 2 MIXED AIR NODE,OUTDOORAIR:MIXER,1 ZONE PVAV 2 OA SYSTEM OUTDOOR AIR MIXER,Outlet,1
 Non-Parent Node Connection,1 ZONE PVAV 2 OUTDOOR AIR NODE,OUTDOORAIR:MIXER,1 ZONE PVAV 2 OA SYSTEM OUTDOOR AIR MIXER,Inlet,1
 Non-Parent Node Connection,1 ZONE PVAV 2 RELIEF AIR NODE,OUTDOORAIR:MIXER,1 ZONE PVAV 2 OA SYSTEM OUTDOOR AIR MIXER,ReliefAir,1
 Non-Parent Node Connection,1 ZONE PVAV 2 SUPPLY INLET NODE,OUTDOORAIR:MIXER,1 ZONE PVAV 2 OA SYSTEM OUTDOOR AIR MIXER,Inlet,1
 Non-Parent Node Connection,BUILDING STORY 10 THERMALZONE PTAC HEATING COIL OUTLET NODE,FAN:CONSTANTVOLUME,BUILDING STORY 10 THERMALZONE PTAC FAN,Inlet,1
 Non-Parent Node Connection,BUILDING STORY 10 THERMALZONE PTAC OUTLET AIR NODE,FAN:CONSTANTVOLUME,BUILDING STORY 10 THERMALZONE PTAC FAN,Outlet,1
 Non-Parent Node Connection,BUILDING STORY 3 THERMALZONE PTAC HEATING COIL OUTLET NODE,FAN:CONSTANTVOLUME,BUILDING STORY 3 THERMALZONE PTAC FAN,Inlet,1
 Non-Parent Node Connection,BUILDING STORY 3 THERMALZONE PTAC OUTLET AIR NODE,FAN:CONSTANTVOLUME,BUILDING STORY 3 THERMALZONE PTAC FAN,Outlet,1
 Non-Parent Node Connection,BUILDING STORY 5 THERMALZONE PTAC HEATING COIL OUTLET NODE,FAN:CONSTANTVOLUME,BUILDING STORY 5 THERMALZONE PTAC FAN,Inlet,1
 Non-Parent Node Connection,BUILDING STORY 5 THERMALZONE PTAC OUTLET AIR NODE,FAN:CONSTANTVOLUME,BUILDING STORY 5 THERMALZONE PTAC FAN,Outlet,1
 Non-Parent Node Connection,BUILDING STORY 6 THERMALZONE PTAC HEATING COIL OUTLET NODE,FAN:CONSTANTVOLUME,BUILDING STORY 6 THERMALZONE PTAC FAN,Inlet,1
 Non-Parent Node Connection,BUILDING STORY 6 THERMALZONE PTAC OUTLET AIR NODE,FAN:CONSTANTVOLUME,BUILDING STORY 6 THERMALZONE PTAC FAN,Outlet,1
 Non-Parent Node Connection,BUILDING STORY 7 THERMALZONE PTAC HEATING COIL OUTLET NODE,FAN:CONSTANTVOLUME,BUILDING STORY 7 THERMALZONE PTAC FAN,Inlet,1
 Non-Parent Node Connection,BUILDING STORY 7 THERMALZONE PTAC OUTLET AIR NODE,FAN:CONSTANTVOLUME,BUILDING STORY 7 THERMALZONE PTAC FAN,Outlet,1
 Non-Parent Node Connection,BUILDING STORY 8 THERMALZONE PTAC HEATING COIL OUTLET NODE,FAN:CONSTANTVOLUME,BUILDING STORY 8 THERMALZONE PTAC FAN,Inlet,1
 Non-Parent Node Connection,BUILDING STORY 8 THERMALZONE PTAC OUTLET AIR NODE,FAN:CONSTANTVOLUME,BUILDING STORY 8 THERMALZONE PTAC FAN,Outlet,1
 Non-Parent Node Connection,BUILDING STORY 9 THERMALZONE PTAC HEATING COIL OUTLET NODE,FAN:CONSTANTVOLUME,BUILDING STORY 9 THERMALZONE PTAC FAN,Inlet,1
 Non-Parent Node Connection,BUILDING STORY 9 THERMALZONE PTAC OUTLET AIR NODE,FAN:CONSTANTVOLUME,BUILDING STORY 9 THERMALZONE PTAC FAN,Outlet,1
 Non-Parent Node Connection,1 ZONE PVAV MAIN HTG COIL OUTLET AIR NODE,FAN:VARIABLEVOLUME,1 ZONE PVAV FAN,Inlet,1
 Non-Parent Node Connection,1 ZONE PVAV SUPPLY OUTLET NODE,FAN:VARIABLEVOLUME,1 ZONE PVAV FAN,Outlet,1
 Non-Parent Node Connection,1 ZONE PVAV 1 MAIN HTG COIL OUTLET AIR NODE,FAN:VARIABLEVOLUME,1 ZONE PVAV 1 FAN,Inlet,1
 Non-Parent Node Connection,1 ZONE PVAV 1 SUPPLY OUTLET NODE,FAN:VARIABLEVOLUME,1 ZONE PVAV 1 FAN,Outlet,1
 Non-Parent Node Connection,1 ZONE PVAV 2 MAIN HTG COIL OUTLET AIR NODE,FAN:VARIABLEVOLUME,1 ZONE PVAV 2 FAN,Inlet,1
 Non-Parent Node Connection,1 ZONE PVAV 2 SUPPLY OUTLET NODE,FAN:VARIABLEVOLUME,1 ZONE PVAV 2 FAN,Outlet,1
 Non-Parent Node Connection,BUILDING STORY 10 THERMALZONE PTAC MIXED AIR NODE,COIL:COOLING:DX:SINGLESPEED,BUILDING STORY 10 THERMALZONE PTAC 1SPD DX AC CLG COIL,Inlet,1
 Non-Parent Node Connection,BUILDING STORY 10 THERMALZONE PTAC COOLING COIL OUTLET NODE,COIL:COOLING:DX:SINGLESPEED,BUILDING STORY 10 THERMALZONE PTAC 1SPD DX AC CLG COIL,Outlet,1
 Non-Parent Node Connection,BUILDING STORY 3 THERMALZONE PTAC MIXED AIR NODE,COIL:COOLING:DX:SINGLESPEED,BUILDING STORY 3 THERMALZONE PTAC 1SPD DX AC CLG COIL,Inlet,1
 Non-Parent Node Connection,BUILDING STORY 3 THERMALZONE PTAC COOLING COIL OUTLET NODE,COIL:COOLING:DX:SINGLESPEED,BUILDING STORY 3 THERMALZONE PTAC 1SPD DX AC CLG COIL,Outlet,1
 Non-Parent Node Connection,BUILDING STORY 5 THERMALZONE PTAC MIXED AIR NODE,COIL:COOLING:DX:SINGLESPEED,BUILDING STORY 5 THERMALZONE PTAC 1SPD DX AC CLG COIL,Inlet,1
 Non-Parent Node Connection,BUILDING STORY 5 THERMALZONE PTAC COOLING COIL OUTLET NODE,COIL:COOLING:DX:SINGLESPEED,BUILDING STORY 5 THERMALZONE PTAC 1SPD DX AC CLG COIL,Outlet,1
 Non-Parent Node Connection,BUILDING STORY 6 THERMALZONE PTAC MIXED AIR NODE,COIL:COOLING:DX:SINGLESPEED,BUILDING STORY 6 THERMALZONE PTAC 1SPD DX AC CLG COIL,Inlet,1
 Non-Parent Node Connection,BUILDING STORY 6 THERMALZONE PTAC COOLING COIL OUTLET NODE,COIL:COOLING:DX:SINGLESPEED,BUILDING STORY 6 THERMALZONE PTAC 1SPD DX AC CLG COIL,Outlet,1
 Non-Parent Node Connection,BUILDING STORY 7 THERMALZONE PTAC MIXED AIR NODE,COIL:COOLING:DX:SINGLESPEED,BUILDING STORY 7 THERMALZONE PTAC 1SPD DX AC CLG COIL,Inlet,1
 Non-Parent Node Connection,BUILDING STORY 7 THERMALZONE PTAC COOLING COIL OUTLET NODE,COIL:COOLING:DX:SINGLESPEED,BUILDING STORY 7 THERMALZONE PTAC 1SPD DX AC CLG COIL,Outlet,1
 Non-Parent Node Connection,BUILDING STORY 8 THERMALZONE PTAC MIXED AIR NODE,COIL:COOLING:DX:SINGLESPEED,BUILDING STORY 8 THERMALZONE PTAC 1SPD DX AC CLG COIL,Inlet,1
 Non-Parent Node Connection,BUILDING STORY 8 THERMALZONE PTAC COOLING COIL OUTLET NODE,COIL:COOLING:DX:SINGLESPEED,BUILDING STORY 8 THERMALZONE PTAC 1SPD DX AC CLG COIL,Outlet,1
 Non-Parent Node Connection,BUILDING STORY 9 THERMALZONE PTAC MIXED AIR NODE,COIL:COOLING:DX:SINGLESPEED,BUILDING STORY 9 THERMALZONE PTAC 1SPD DX AC CLG COIL,Inlet,1
 Non-Parent Node Connection,BUILDING STORY 9 THERMALZONE PTAC COOLING COIL OUTLET NODE,COIL:COOLING:DX:SINGLESPEED,BUILDING STORY 9 THERMALZONE PTAC 1SPD DX AC CLG COIL,Outlet,1
 Non-Parent Node Connection,1 ZONE PVAV MIXED AIR NODE,COIL:COOLING:DX:TWOSPEED,1 ZONE PVAV 2SPD DX CLG COIL,Inlet,1
 Non-Parent Node Connection,1 ZONE PVAV 2SPD DX CLG COIL OUTLET AIR NODE,COIL:COOLING:DX:TWOSPEED,1 ZONE PVAV 2SPD DX CLG COIL,Outlet,1
 Non-Parent Node Connection,1 ZONE PVAV 1 MIXED AIR NODE,COIL:COOLING:DX:TWOSPEED,1 ZONE PVAV 1 2SPD DX CLG COIL,Inlet,1
 Non-Parent Node Connection,1 ZONE PVAV 1 2SPD DX CLG COIL OUTLET AIR NODE,COIL:COOLING:DX:TWOSPEED,1 ZONE PVAV 1 2SPD DX CLG COIL,Outlet,1
 Non-Parent Node Connection,1 ZONE PVAV 2 MIXED AIR NODE,COIL:COOLING:DX:TWOSPEED,1 ZONE PVAV 2 2SPD DX CLG COIL,Inlet,1
 Non-Parent Node Connection,1 ZONE PVAV 2 2SPD DX CLG COIL OUTLET AIR NODE,COIL:COOLING:DX:TWOSPEED,1 ZONE PVAV 2 2SPD DX CLG COIL,Outlet,1
 Non-Parent Node Connection,1 ZONE PVAV DEMAND OUTLET NODE,AIRLOOPHVAC:ZONEMIXER,AIR LOOP HVAC ZONE MIXER 1,Outlet,1
 Non-Parent Node Connection,BUILDING STORY 1 THERMALZONE RETURN AIR NODE,AIRLOOPHVAC:ZONEMIXER,AIR LOOP HVAC ZONE MIXER 1,Inlet,1
 Non-Parent Node Connection,1 ZONE PVAV 1 DEMAND OUTLET NODE,AIRLOOPHVAC:ZONEMIXER,AIR LOOP HVAC ZONE MIXER 2,Outlet,1
 Non-Parent Node Connection,BUILDING STORY 2 THERMALZONE RETURN AIR NODE,AIRLOOPHVAC:ZONEMIXER,AIR LOOP HVAC ZONE MIXER 2,Inlet,1
 Non-Parent Node Connection,1 ZONE PVAV 2 DEMAND OUTLET NODE,AIRLOOPHVAC:ZONEMIXER,AIR LOOP HVAC ZONE MIXER 3,Outlet,1
 Non-Parent Node Connection,BUILDING STORY 4 THERMALZONE RETURN AIR NODE,AIRLOOPHVAC:ZONEMIXER,AIR LOOP HVAC ZONE MIXER 3,Inlet,1
 Non-Parent Node Connection,1 ZONE PVAV MIXED AIR NODE,CONTROLLER:OUTDOORAIR,CONTROLLER OUTDOOR AIR 1,Sensor,1
 Non-Parent Node Connection,1 ZONE PVAV OUTDOOR AIR NODE,CONTROLLER:OUTDOORAIR,CONTROLLER OUTDOOR AIR 1,Actuator,1
 Non-Parent Node Connection,1 ZONE PVAV RELIEF AIR NODE,CONTROLLER:OUTDOORAIR,CONTROLLER OUTDOOR AIR 1,Actuator,1
 Non-Parent Node Connection,1 ZONE PVAV SUPPLY INLET NODE,CONTROLLER:OUTDOORAIR,CONTROLLER OUTDOOR AIR 1,Sensor,1
 Non-Parent Node Connection,1 ZONE PVAV 1 MIXED AIR NODE,CONTROLLER:OUTDOORAIR,CONTROLLER OUTDOOR AIR 2,Sensor,1
 Non-Parent Node Connection,1 ZONE PVAV 1 OUTDOOR AIR NODE,CONTROLLER:OUTDOORAIR,CONTROLLER OUTDOOR AIR 2,Actuator,1
 Non-Parent Node Connection,1 ZONE PVAV 1 RELIEF AIR NODE,CONTROLLER:OUTDOORAIR,CONTROLLER OUTDOOR AIR 2,Actuator,1
 Non-Parent Node Connection,1 ZONE PVAV 1 SUPPLY INLET NODE,CONTROLLER:OUTDOORAIR,CONTROLLER OUTDOOR AIR 2,Sensor,1
 Non-Parent Node Connection,1 ZONE PVAV 2 MIXED AIR NODE,CONTROLLER:OUTDOORAIR,CONTROLLER OUTDOOR AIR 3,Sensor,1
 Non-Parent Node Connection,1 ZONE PVAV 2 OUTDOOR AIR NODE,CONTROLLER:OUTDOORAIR,CONTROLLER OUTDOOR AIR 3,Actuator,1
 Non-Parent Node Connection,1 ZONE PVAV 2 RELIEF AIR NODE,CONTROLLER:OUTDOORAIR,CONTROLLER OUTDOOR AIR 3,Actuator,1
 Non-Parent Node Connection,1 ZONE PVAV 2 SUPPLY INLET NODE,CONTROLLER:OUTDOORAIR,CONTROLLER OUTDOOR AIR 3,Sensor,1
 Non-Parent Node Connection,HX FOR BOOSTER WATER HEATING DEMAND INLET WATER NODE,HEATEXCHANGER:FLUIDTOFLUID,HX FOR BOOSTER WATER HEATING,Inlet,1
 Non-Parent Node Connection,MAINS WATER MAKEUP FOR SWH BOOSTER INLET WATER NODE,HEATEXCHANGER:FLUIDTOFLUID,HX FOR BOOSTER WATER HEATING,Outlet,1
 Non-Parent Node Connection,LARGEHOTEL KITCHEN - 90.1-2013 SERVICE WATER BOOSTER LOOP SUPPLY INLET NODE,HEATEXCHANGER:FLUIDTOFLUID,HX FOR BOOSTER WATER HEATING,Inlet,2
 Non-Parent Node Connection,BOOSTER WATER LOOP PUMP INLET WATER NODE,HEATEXCHANGER:FLUIDTOFLUID,HX FOR BOOSTER WATER HEATING,Outlet,2
 Non-Parent Node Connection,LARGEHOTEL KITCHEN - 90.1-2013 SERVICE WATER BOOSTER LOOP SUPPLY OUTLET NODE,HEATEXCHANGER:FLUIDTOFLUID,HX FOR BOOSTER WATER HEATING,Sensor,1
 Non-Parent Node Connection,MAINS WATER MAKEUP FOR SWH BOOSTER INLET WATER NODE,PLANTCOMPONENT:TEMPERATURESOURCE,MAINS WATER MAKEUP FOR SWH BOOSTER,Inlet,1
 Non-Parent Node Connection,MAINS WATER MAKEUP FOR SWH BOOSTER OUTLET WATER NODE,PLANTCOMPONENT:TEMPERATURESOURCE,MAINS WATER MAKEUP FOR SWH BOOSTER,Outlet,1
 Non-Parent Node Connection,BOILER INLET WATER NODE,BOILER:HOTWATER,BOILER,Inlet,1
 Non-Parent Node Connection,BOILER OUTLET WATER NODE,BOILER:HOTWATER,BOILER,Outlet,1
 Non-Parent Node Connection,HOT WATER LOOP SUPPLY INLET NODE,PUMP:VARIABLESPEED,HOT WATER LOOP PUMP,Inlet,1
 Non-Parent Node Connection,HOT WATER LOOP PUMP OUTLET WATER NODE,PUMP:VARIABLESPEED,HOT WATER LOOP PUMP,Outlet,1
 Non-Parent Node Connection,BOOSTER WATER LOOP PUMP INLET WATER NODE,PUMP:VARIABLESPEED,BOOSTER WATER LOOP PUMP,Inlet,1
 Non-Parent Node Connection,BOOSTER WATER LOOP PUMP OUTLET WATER NODE,PUMP:VARIABLESPEED,BOOSTER WATER LOOP PUMP,Outlet,1
 Non-Parent Node Connection,LARGEHOTEL KITCHEN - 90.1-2013 SERVICE WATER LOOP SUPPLY INLET NODE,PUMP:VARIABLESPEED,LARGEHOTEL KITCHEN - 90.1-2013 SERVICE WATER LOOP WATER MAINS PRESSURE DRIVEN,Inlet,1
 Non-Parent Node Connection,LARGEHOTEL KITCHEN - 90.1-2013 SERVICE WATER LOOP WATER MAINS PRESSURE DRIVEN OUTLET WATER NODE,PUMP:VARIABLESPEED,LARGEHOTEL KITCHEN - 90.1-2013 SERVICE WATER LOOP WATER MAINS PRESSURE DRIVEN,Outlet,1
 Non-Parent Node Connection,LARGEHOTEL LAUNDRY - 90.1-2013 SERVICE WATER LOOP SUPPLY INLET NODE,PUMP:VARIABLESPEED,LARGEHOTEL LAUNDRY - 90.1-2013 SERVICE WATER LOOP WATER MAINS PRESSURE DRIVEN,Inlet,1
 Non-Parent Node Connection,LARGEHOTEL LAUNDRY - 90.1-2013 SERVICE WATER LOOP WATER MAINS PRESSURE DRIVEN OUTLET WATER NODE,PUMP:VARIABLESPEED,LARGEHOTEL LAUNDRY - 90.1-2013 SERVICE WATER LOOP WATER MAINS PRESSURE DRIVEN,Outlet,1
 Non-Parent Node Connection,LARGEHOTEL SHARED SERVICE WATER LOOP SUPPLY INLET NODE,PUMP:CONSTANTSPEED,LARGEHOTEL SHARED SERVICE WATER LOOP CIRCULATOR PUMP,Inlet,1
 Non-Parent Node Connection,LARGEHOTEL SHARED SERVICE WATER LOOP CIRCULATOR PUMP OUTLET WATER NODE,PUMP:CONSTANTSPEED,LARGEHOTEL SHARED SERVICE WATER LOOP CIRCULATOR PUMP,Outlet,1
