Program Version,EnergyPlus, Version 9.1.0-fafb9d5652, YMD=2020.03.26 13:37
! <Version>, Version ID
 Version, 9.1
! <Timesteps per Hour>, #TimeSteps, Minutes per TimeStep {minutes}
 Timesteps per Hour,  1, 60
! <System Convergence Limits>, Minimum System TimeStep {minutes}, Max HVAC Iterations, Minimum Plant Iterations, Maximum Plant Iterations
 System Convergence Limits, 1, 20, 2, 8
! <Simulation Control>, Do Zone Sizing, Do System Sizing, Do Plant Sizing, Do Design Days, Do Weather Simulation, Do HVAC Sizing Simulation
 Simulation Control, Yes, Yes, Yes, Yes, No, No
! <Output Reporting Tolerances>, Tolerance for Time Heating Setpoint Not Met, Tolerance for Zone Cooling Setpoint Not Met Time
 Output Reporting Tolerances, 0.556, 0.556, 
! <Site:GroundTemperature:BuildingSurface>,Jan{C},Feb{C},Mar{C},Apr{C},May{C},Jun{C},Jul{C},Aug{C},Sep{C},Oct{C},Nov{C},Dec{C}
 Site:GroundTemperature:BuildingSurface,  20.14,  20.06,  20.11,  20.22,  20.33,  20.46,  20.58,  20.63,  20.64,  20.54,  20.44,  20.26
! <Site:GroundTemperature:FCfactorMethod>,Jan{C},Feb{C},Mar{C},Apr{C},May{C},Jun{C},Jul{C},Aug{C},Sep{C},Oct{C},Nov{C},Dec{C}
 Site:GroundTemperature:FCfactorMethod,  -2.87,  -0.64,   3.71,   7.83,  15.62,  19.72,  20.85,  18.77,  13.96,   7.98,   2.08,  -1.81
! <Site:GroundTemperature:Shallow>,Jan{C},Feb{C},Mar{C},Apr{C},May{C},Jun{C},Jul{C},Aug{C},Sep{C},Oct{C},Nov{C},Dec{C}
 Site:GroundTemperature:Shallow,  13.00,  13.00,  13.00,  13.00,  13.00,  13.00,  13.00,  13.00,  13.00,  13.00,  13.00,  13.00
! <Site:GroundTemperature:Deep>,Jan{C},Feb{C},Mar{C},Apr{C},May{C},Jun{C},Jul{C},Aug{C},Sep{C},Oct{C},Nov{C},Dec{C}
 Site:GroundTemperature:Deep,  16.00,  16.00,  16.00,  16.00,  16.00,  16.00,  16.00,  16.00,  16.00,  16.00,  16.00,  16.00
! <Site:GroundReflectance>,Jan{dimensionless},Feb{dimensionless},Mar{dimensionless},Apr{dimensionless},May{dimensionless},Jun{dimensionless},Jul{dimensionless},Aug{dimensionless},Sep{dimensionless},Oct{dimensionless},Nov{dimensionless},Dec{dimensionless}
 Site:GroundReflectance,  0.20,  0.20,  0.20,  0.20,  0.20,  0.20,  0.20,  0.20,  0.20,  0.20,  0.20,  0.20
! <Site:GroundReflectance:SnowModifier>, Normal, Daylighting {dimensionless}
 Site:GroundReflectance:SnowModifier,   1.000,   1.000
! <Site:GroundReflectance:Snow>,Jan{dimensionless},Feb{dimensionless},Mar{dimensionless},Apr{dimensionless},May{dimensionless},Jun{dimensionless},Jul{dimensionless},Aug{dimensionless},Sep{dimensionless},Oct{dimensionless},Nov{dimensionless},Dec{dimensionless}
 Site:GroundReflectance:Snow,  0.20,  0.20,  0.20,  0.20,  0.20,  0.20,  0.20,  0.20,  0.20,  0.20,  0.20,  0.20
! <Site:GroundReflectance:Snow:Daylighting>,Jan{dimensionless},Feb{dimensionless},Mar{dimensionless},Apr{dimensionless},May{dimensionless},Jun{dimensionless},Jul{dimensionless},Aug{dimensionless},Sep{dimensionless},Oct{dimensionless},Nov{dimensionless},Dec{dimensionless}
 Site:GroundReflectance:Snow:Daylighting,  0.20,  0.20,  0.20,  0.20,  0.20,  0.20,  0.20,  0.20,  0.20,  0.20,  0.20,  0.20
! <Environment:Weather Station>,Wind Sensor Height Above Ground {m},Wind Speed Profile Exponent {},Wind Speed Profile Boundary Layer Thickness {m},Air Temperature Sensor Height Above Ground {m},Wind Speed Modifier Coefficient-Internal,Temperature Modifier Coefficient-Internal
Environment:Weather Station,10.000,0.140,270.000,1.500,1.586,9.750E-003
! <Site:Location>, Location Name, Latitude {N+/S- Deg}, Longitude {E+/W- Deg},  Time Zone Number {GMT+/-}, Elevation {m},  Standard Pressure at Elevation {Pa}, Standard RhoAir at Elevation
Site:Location,Buffalo Niagara Intl Ap NY USA TMY3 WMO#=725280,42.93,-78.73,-5.00,215.00,98769,1.1739
! <Site Water Mains Temperature Information>,Calculation Method{},Water Mains Temperature Schedule Name{},Annual Average Outdoor Air Temperature{C},Maximum Difference In Monthly Average Outdoor Air Temperatures{deltaC},Fixed Default Water Mains Temperature{C}
Site Water Mains Temperature Information,Correlation,NA,8.97,26.20,NA
! <Building Information>, Building Name,North Axis {deg},Terrain,  Loads Convergence Tolerance Value,Temperature Convergence Tolerance Value,  Solar Distribution,Maximum Number of Warmup Days,Minimum Number of Warmup Days
 Building Information,Hotel 1,0.000,City,4.00000E-002,0.40000,FullExterior,25,6
! <Inside Convection Algorithm>, Algorithm {Simple | TARP | CeilingDiffuser | AdaptiveConvectionAlgorithm}
Inside Convection Algorithm,TARP
! <Outside Convection Algorithm>, Algorithm {SimpleCombined | TARP | MoWitt | DOE-2 | AdaptiveConvectionAlgorithm}
Outside Convection Algorithm,DOE-2
! <Sky Radiance Distribution>, Value {Anisotropic}
Sky Radiance Distribution,Anisotropic
! <Zone Air Solution Algorithm>, Value {ThirdOrderBackwardDifference | AnalyticalSolution | EulerMethod}
 Zone Air Solution Algorithm, ThirdOrderBackwardDifference
! <Zone Air Carbon Dioxide Balance Simulation>, Simulation {Yes/No}, Carbon Dioxide Concentration
 Zone Air Carbon Dioxide Balance Simulation, No,N/A
! <Zone Air Generic Contaminant Balance Simulation>, Simulation {Yes/No}, Generic Contaminant Concentration
 Zone Air Generic Contaminant Balance Simulation, No,N/A
! <Zone Air Mass Flow Balance Simulation>, Enforce Mass Balance, Adjust Zone Mixing, Adjust Zone Infiltration {AddInfiltration | AdjustInfiltration | None}, Infiltration Zones {MixingSourceZonesOnly | AllZones}
 Zone Air Mass Flow Balance Simulation, No,N/A,N/A,N/A
! <HVACSystemRootFindingAlgorithm>, Value {RegulaFalsi | Bisection | BisectionThenRegulaFalsi | RegulaFalsiThenBisection}
 HVACSystemRootFindingAlgorithm, RegulaFalsi
! <Environment:Site Atmospheric Variation>,Wind Speed Profile Exponent {},Wind Speed Profile Boundary Layer Thickness {m},Air Temperature Gradient Coefficient {K/m}
Environment:Site Atmospheric Variation,0.330,460.000,6.500000E-003
! <Surface Geometry>,Starting Corner,Vertex Input Direction,Coordinate System,Daylight Reference Point Coordinate System,Rectangular (Simple) Surface Coordinate System
 Surface Geometry,UpperLeftCorner,Counterclockwise,RelativeCoordinateSystem,RelativeCoordinateSystem,RelativeToZoneOrigin
! <Surface Heat Transfer Algorithm>, Value {CTF - ConductionTransferFunction | EMPD - MoisturePenetrationDepthConductionTransferFunction | CondFD - ConductionFiniteDifference | HAMT - CombinedHeatAndMoistureFiniteElement} - Description,Inside Surface Max Temperature Limit{C}, Surface Convection Coefficient Lower Limit {W/m2-K}, Surface Convection Coefficient Upper Limit {W/m2-K}
Surface Heat Transfer Algorithm, CTF - ConductionTransferFunction,200,0.10,1000.0
! <Shading Summary>, Number of Fixed Detached Shades, Number of Building Detached Shades, Number of Attached Shades
 Shading Summary,0,12,0
! <Zone Summary>, Number of Zones, Number of Zone Surfaces, Number of SubSurfaces
 Zone Summary,10,214,40
! <Zone Information>,Zone Name,North Axis {deg},Origin X-Coordinate {m},Origin Y-Coordinate {m},Origin Z-Coordinate {m},Centroid X-Coordinate {m},Centroid Y-Coordinate {m},Centroid Z-Coordinate {m},Type,Zone Multiplier,Zone List Multiplier,Minimum X {m},Maximum X {m},Minimum Y {m},Maximum Y {m},Minimum Z {m},Maximum Z {m},Ceiling Height {m},Volume {m3},Zone Inside Convection Algorithm {Simple-Detailed-CeilingDiffuser-TrombeWall},Zone Outside Convection Algorithm {Simple-Detailed-Tarp-MoWitt-DOE-2-BLAST}, Floor Area {m2},Exterior Gross Wall Area {m2},Exterior Net Wall Area {m2},Exterior Window Area {m2}, Number of Surfaces, Number of SubSurfaces, Number of Shading SubSurfaces,  Part of Total Building Area
 Zone Information, BUILDING STORY 1 THERMALZONE,0.0,0.00,0.00,0.00,33.23,35.60,1.50,1,1,1,1.52E-010,66.46,2.52E-005,71.19,0.00,3.00,3.00,8807.05,TARP,DOE-2,2935.68,651.86,456.30,195.56,6,4,0,Yes
 Zone Information, BUILDING STORY 10 THERMALZONE,0.0,0.00,0.00,0.00,33.23,35.60,28.50,1,1,1,1.52E-010,66.46,2.52E-005,71.19,27.00,30.00,3.00,8807.05,TARP,DOE-2,2935.68,651.86,456.30,195.56,6,4,0,Yes
 Zone Information, BUILDING STORY 2 THERMALZONE,0.0,0.00,0.00,0.00,33.23,35.60,4.50,1,1,1,1.52E-010,66.46,2.52E-005,71.19,3.00,6.00,3.00,8807.05,TARP,DOE-2,2935.68,651.86,456.30,195.56,6,4,0,Yes
 Zone Information, BUILDING STORY 3 THERMALZONE,0.0,0.00,0.00,0.00,33.23,35.60,7.50,1,1,1,1.52E-010,66.46,2.52E-005,71.19,6.00,9.00,3.00,8807.05,TARP,DOE-2,2935.68,651.86,456.30,195.56,6,4,0,Yes
 Zone Information, BUILDING STORY 4 THERMALZONE,0.0,0.00,0.00,0.00,33.23,35.60,10.50,1,1,1,1.52E-010,66.46,2.52E-005,71.19,9.00,12.00,3.00,8807.05,TARP,DOE-2,2935.68,651.86,456.30,195.56,6,4,0,Yes
 Zone Information, BUILDING STORY 5 THERMALZONE,0.0,0.00,0.00,0.00,33.23,35.60,13.50,1,1,1,1.52E-010,66.46,2.52E-005,71.19,12.00,15.00,3.00,8807.05,TARP,DOE-2,2935.68,651.86,456.30,195.56,6,4,0,Yes
 Zone Information, BUILDING STORY 6 THERMALZONE,0.0,0.00,0.00,0.00,33.23,35.60,16.50,1,1,1,1.52E-010,66.46,2.52E-005,71.19,15.00,18.00,3.00,8807.05,TARP,DOE-2,2935.68,651.86,456.30,195.56,6,4,0,Yes
 Zone Information, BUILDING STORY 7 THERMALZONE,0.0,0.00,0.00,0.00,33.23,35.60,19.50,1,1,1,1.52E-010,66.46,2.52E-005,71.19,18.00,21.00,3.00,8807.05,TARP,DOE-2,2935.68,651.86,456.30,195.56,6,4,0,Yes
 Zone Information, BUILDING STORY 8 THERMALZONE,0.0,0.00,0.00,0.00,33.23,35.60,22.50,1,1,1,1.52E-010,66.46,2.52E-005,71.19,21.00,24.00,3.00,8807.05,TARP,DOE-2,2935.68,651.86,456.30,195.56,6,4,0,Yes
 Zone Information, BUILDING STORY 9 THERMALZONE,0.0,0.00,0.00,0.00,33.23,35.60,25.50,1,1,1,1.52E-010,66.46,2.52E-005,71.19,24.00,27.00,3.00,8807.05,TARP,DOE-2,2935.68,651.86,456.30,195.56,6,4,0,Yes
! <Zone Internal Gains Nominal>,Zone Name, Floor Area {m2},# Occupants,Area per Occupant {m2/person},Occupant per Area {person/m2},Interior Lighting {W/m2},Electric Load {W/m2},Gas Load {W/m2},Other Load {W/m2},Hot Water Eq {W/m2},Steam Equipment {W/m2},Sum Loads per Area {W/m2},Outdoor Controlled Baseboard Heat
 Zone Internal Gains Nominal, BUILDING STORY 1 THERMALZONE,2935.68,996.4,2.946,0.339,10.145,167.276,311.512,0.000,0.000,0.000,488.932,No
 Zone Internal Gains Nominal, BUILDING STORY 10 THERMALZONE,2935.68,79.2,37.045,2.699E-002,8.995,4.741,0.000,0.000,0.000,0.000,13.736,No
 Zone Internal Gains Nominal, BUILDING STORY 2 THERMALZONE,2935.68,889.3,3.301,0.303,11.247,7.848,0.000,0.000,0.000,0.000,19.094,No
 Zone Internal Gains Nominal, BUILDING STORY 3 THERMALZONE,2935.68,79.2,37.045,2.699E-002,8.995,4.741,0.000,0.000,0.000,0.000,13.736,No
 Zone Internal Gains Nominal, BUILDING STORY 4 THERMALZONE,2935.68,1625.3,1.806,0.554,10.429,40.090,0.000,0.000,0.000,0.000,50.520,No
 Zone Internal Gains Nominal, BUILDING STORY 5 THERMALZONE,2935.68,79.2,37.045,2.699E-002,8.995,4.741,0.000,0.000,0.000,0.000,13.736,No
 Zone Internal Gains Nominal, BUILDING STORY 6 THERMALZONE,2935.68,79.2,37.045,2.699E-002,8.995,4.741,0.000,0.000,0.000,0.000,13.736,No
 Zone Internal Gains Nominal, BUILDING STORY 7 THERMALZONE,2935.68,79.2,37.045,2.699E-002,8.995,4.741,0.000,0.000,0.000,0.000,13.736,No
 Zone Internal Gains Nominal, BUILDING STORY 8 THERMALZONE,2935.68,79.2,37.045,2.699E-002,8.995,4.741,0.000,0.000,0.000,0.000,13.736,No
 Zone Internal Gains Nominal, BUILDING STORY 9 THERMALZONE,2935.68,79.2,37.045,2.699E-002,8.995,4.741,0.000,0.000,0.000,0.000,13.736,No
! <People Internal Gains Nominal>,Name,Schedule Name,Zone Name,Zone Floor Area {m2},# Zone Occupants,Number of People {},People/Floor Area {person/m2},Floor Area per person {m2/person},Fraction Radiant,Fraction Convected,Sensible Fraction Calculation,Activity level,ASHRAE 55 Warnings,Carbon Dioxide Generation Rate,Nominal Minimum Number of People,Nominal Maximum Number of People
 People Internal Gains Nominal, BUILDING STORY 1 THERMALZONE LARGEHOTEL BANQUET PEOPLE 1,HOTELLARGE BLDG_OCC_SCH,BUILDING STORY 1 THERMALZONE,2935.68,996.4,382.1,0.130,7.684,0.300,0.700,AutoCalculate,HOTELLARGE ACTIVITY_SCH,No,3.8200E-008,0,382
 People Internal Gains Nominal, BUILDING STORY 1 THERMALZONE LARGEHOTEL CAFE PEOPLE 1,HOTELLARGE BLDG_OCC_SCH,BUILDING STORY 1 THERMALZONE,2935.68,996.4,444.7,0.151,6.601,0.300,0.700,AutoCalculate,HOTELLARGE ACTIVITY_SCH,No,3.8200E-008,0,445
 People Internal Gains Nominal, BUILDING STORY 1 THERMALZONE LARGEHOTEL KITCHEN PEOPLE 1,HOTELLARGE BLDG_OCC_SCH,BUILDING STORY 1 THERMALZONE,2935.68,996.4,69.7,2.373E-002,42.143,0.300,0.700,AutoCalculate,HOTELLARGE ACTIVITY_SCH,No,3.8200E-008,0,70
 People Internal Gains Nominal, BUILDING STORY 1 THERMALZONE LARGEHOTEL LAUNDRY PEOPLE 1,HOTELLARGE BLDG_OCC_SCH,BUILDING STORY 1 THERMALZONE,2935.68,996.4,26.4,8.996E-003,111.161,0.300,0.700,AutoCalculate,HOTELLARGE ACTIVITY_SCH,No,3.8200E-008,0,26
 People Internal Gains Nominal, BUILDING STORY 1 THERMALZONE LARGEHOTEL RETAIL PEOPLE 1,HOTELLARGE BLDG_OCC_SCH,BUILDING STORY 1 THERMALZONE,2935.68,996.4,73.5,2.503E-002,39.948,0.300,0.700,AutoCalculate,HOTELLARGE ACTIVITY_SCH,No,3.8200E-008,0,73
 People Internal Gains Nominal, BUILDING STORY 4 THERMALZONE LARGEHOTEL BANQUET PEOPLE 2,HOTELLARGE BLDG_OCC_SCH,BUILDING STORY 4 THERMALZONE,2935.68,1625.3,1185.3,0.404,2.477,0.300,0.700,AutoCalculate,HOTELLARGE ACTIVITY_SCH,No,3.8200E-008,0,1185
 People Internal Gains Nominal, BUILDING STORY 4 THERMALZONE LARGEHOTEL LOBBY PEOPLE 1,HOTELLARGE BLDG_OCC_SCH,BUILDING STORY 4 THERMALZONE,2935.68,1625.3,440.0,0.150,6.672,0.300,0.700,AutoCalculate,HOTELLARGE ACTIVITY_SCH,No,3.8200E-008,0,440
 People Internal Gains Nominal, BUILDING STORY 2 THERMALZONE LARGEHOTEL GUESTROOM PEOPLE 1,HOTELLARGE GUESTROOM_OCC_SCH,BUILDING STORY 2 THERMALZONE,2935.68,889.3,5.4,1.824E-003,548.100,0.300,0.700,AutoCalculate,HOTELLARGE ACTIVITY_SCH,No,3.8200E-008,0,5
 People Internal Gains Nominal, BUILDING STORY 2 THERMALZONE LARGEHOTEL LOBBY PEOPLE 2,HOTELLARGE BLDG_OCC_SCH,BUILDING STORY 2 THERMALZONE,2935.68,889.3,883.9,0.301,3.321,0.300,0.700,AutoCalculate,HOTELLARGE ACTIVITY_SCH,No,3.8200E-008,0,884
 People Internal Gains Nominal, BUILDING STORY 6 THERMALZONE LARGEHOTEL GUESTROOM PEOPLE 2,HOTELLARGE GUESTROOM_OCC_SCH,BUILDING STORY 6 THERMALZONE,2935.68,79.2,79.2,2.699E-002,37.045,0.300,0.700,AutoCalculate,HOTELLARGE ACTIVITY_SCH,No,3.8200E-008,0,79
 People Internal Gains Nominal, BUILDING STORY 3 THERMALZONE LARGEHOTEL GUESTROOM PEOPLE 3,HOTELLARGE GUESTROOM_OCC_SCH,BUILDING STORY 3 THERMALZONE,2935.68,79.2,79.2,2.699E-002,37.045,0.300,0.700,AutoCalculate,HOTELLARGE ACTIVITY_SCH,No,3.8200E-008,0,79
 People Internal Gains Nominal, BUILDING STORY 5 THERMALZONE LARGEHOTEL GUESTROOM PEOPLE 4,HOTELLARGE GUESTROOM_OCC_SCH,BUILDING STORY 5 THERMALZONE,2935.68,79.2,79.2,2.699E-002,37.045,0.300,0.700,AutoCalculate,HOTELLARGE ACTIVITY_SCH,No,3.8200E-008,0,79
 People Internal Gains Nominal, BUILDING STORY 7 THERMALZONE LARGEHOTEL GUESTROOM PEOPLE 5,HOTELLARGE GUESTROOM_OCC_SCH,BUILDING STORY 7 THERMALZONE,2935.68,79.2,79.2,2.699E-002,37.045,0.300,0.700,AutoCalculate,HOTELLARGE ACTIVITY_SCH,No,3.8200E-008,0,79
 People Internal Gains Nominal, BUILDING STORY 8 THERMALZONE LARGEHOTEL GUESTROOM PEOPLE 6,HOTELLARGE GUESTROOM_OCC_SCH,BUILDING STORY 8 THERMALZONE,2935.68,79.2,79.2,2.699E-002,37.045,0.300,0.700,AutoCalculate,HOTELLARGE ACTIVITY_SCH,No,3.8200E-008,0,79
 People Internal Gains Nominal, BUILDING STORY 9 THERMALZONE LARGEHOTEL GUESTROOM PEOPLE 7,HOTELLARGE GUESTROOM_OCC_SCH,BUILDING STORY 9 THERMALZONE,2935.68,79.2,79.2,2.699E-002,37.045,0.300,0.700,AutoCalculate,HOTELLARGE ACTIVITY_SCH,No,3.8200E-008,0,79
 People Internal Gains Nominal, BUILDING STORY 10 THERMALZONE LARGEHOTEL GUESTROOM PEOPLE 8,HOTELLARGE GUESTROOM_OCC_SCH,BUILDING STORY 10 THERMALZONE,2935.68,79.2,79.2,2.699E-002,37.045,0.300,0.700,AutoCalculate,HOTELLARGE ACTIVITY_SCH,No,3.8200E-008,0,79
! <Lights Internal Gains Nominal>,Name,Schedule Name,Zone Name,Zone Floor Area {m2},# Zone Occupants,Lighting Level {W},Lights/Floor Area {W/m2},Lights per person {W/person},Fraction Return Air,Fraction Radiant,Fraction Short Wave,Fraction Convected,Fraction Replaceable,End-Use Category,Nominal Minimum Lighting Level {W},Nominal Maximum Lighting Level {W}
 Lights Internal Gains Nominal, BUILDING STORY 1 THERMALZONE LARGEHOTEL BANQUET LIGHTS 1,HOTELLARGE BLDG_LIGHT_SCH_2013,BUILDING STORY 1 THERMALZONE,2935.68,996.4,4857.569,1.655,4.875,0.000,0.700,0.200,0.100,1.000,General,0.000,4857.569
 Lights Internal Gains Nominal, BUILDING STORY 1 THERMALZONE LARGEHOTEL CAFE LIGHTS 1,HOTELLARGE BLDG_LIGHT_SCH_2013,BUILDING STORY 1 THERMALZONE,2935.68,996.4,5654.673,1.926,5.675,0.000,0.700,0.200,0.100,1.000,General,0.000,5654.673
 Lights Internal Gains Nominal, BUILDING STORY 1 THERMALZONE LARGEHOTEL KITCHEN LIGHTS 1,HOTELLARGE BLDG_LIGHT_SCH_2013,BUILDING STORY 1 THERMALZONE,2935.68,996.4,4214.404,1.436,4.230,0.000,0.700,0.200,0.100,1.000,General,0.000,4214.404
 Lights Internal Gains Nominal, BUILDING STORY 1 THERMALZONE LARGEHOTEL LAUNDRY LIGHTS 1,HOTELLARGE BLDG_LIGHT_SCH_2013,BUILDING STORY 1 THERMALZONE,2935.68,996.4,1584.564,0.540,1.590,0.000,0.700,0.200,0.100,1.000,General,0.000,1584.564
 Lights Internal Gains Nominal, BUILDING STORY 1 THERMALZONE LARGEHOTEL MECHANICAL LIGHTS 1,HOTELLARGE BLDG_LIGHT_MECHANIC_SCH_2013,BUILDING STORY 1 THERMALZONE,2935.68,996.4,5272.311,1.796,5.292,0.000,0.700,0.200,0.100,1.000,General,0.000,5272.311
 Lights Internal Gains Nominal, BUILDING STORY 1 THERMALZONE LARGEHOTEL RETAIL LIGHTS 1,HOTELLARGE BLDG_LIGHT_SCH_2013,BUILDING STORY 1 THERMALZONE,2935.68,996.4,6172.910,2.103,6.195,0.000,0.700,0.200,0.100,1.000,General,0.000,6172.910
 Lights Internal Gains Nominal, BUILDING STORY 1 THERMALZONE LARGEHOTEL STORAGE LIGHTS 1,HOTELLARGE BLDG_LIGHT_STORAGE_SCH_2013,BUILDING STORY 1 THERMALZONE,2935.68,996.4,2025.486,0.690,2.033,0.000,0.700,0.200,0.100,1.000,General,0.000,2025.486
 Lights Internal Gains Nominal, BUILDING STORY 4 THERMALZONE LARGEHOTEL BANQUET LIGHTS 2,HOTELLARGE BLDG_LIGHT_SCH_2013,BUILDING STORY 4 THERMALZONE,2935.68,1625.3,15070.045,5.133,9.272,0.000,0.700,0.200,0.100,1.000,General,0.000,15070.045
 Lights Internal Gains Nominal, BUILDING STORY 4 THERMALZONE LARGEHOTEL LOBBY LIGHTS 1,HOTELLARGE BLDG_LIGHT_SCH_2013,BUILDING STORY 4 THERMALZONE,2935.68,1625.3,15546.792,5.296,9.566,0.000,0.700,0.200,0.100,1.000,General,0.000,15546.792
 Lights Internal Gains Nominal, BUILDING STORY 2 THERMALZONE LARGEHOTEL CORRIDOR LIGHTS 1,HOTELLARGE BLDG_LIGHT_CORRIDOR_SCH_2013,BUILDING STORY 2 THERMALZONE,2935.68,889.3,419.369,0.143,0.472,0.000,0.700,0.200,0.100,1.000,General,0.000,419.369
 Lights Internal Gains Nominal, BUILDING STORY 2 THERMALZONE LARGEHOTEL GUESTROOM LIGHTS 1,HOTELLARGE BLDG_LIGHT_GUESTROOM_SCH_2013,BUILDING STORY 2 THERMALZONE,2935.68,889.3,1365.281,0.465,1.535,0.000,0.700,0.200,0.100,1.000,General,0.000,1365.281
 Lights Internal Gains Nominal, BUILDING STORY 2 THERMALZONE LARGEHOTEL LOBBY LIGHTS 2,HOTELLARGE BLDG_LIGHT_SCH_2013,BUILDING STORY 2 THERMALZONE,2935.68,889.3,31231.526,10.639,35.121,0.000,0.700,0.200,0.100,1.000,General,0.000,31231.526
 Lights Internal Gains Nominal, BUILDING STORY 6 THERMALZONE LARGEHOTEL CORRIDOR LIGHTS 2,HOTELLARGE BLDG_LIGHT_CORRIDOR_SCH_2013,BUILDING STORY 6 THERMALZONE,2935.68,79.2,6204.859,2.114,78.297,0.000,0.700,0.200,0.100,1.000,General,0.000,6204.859
 Lights Internal Gains Nominal, BUILDING STORY 6 THERMALZONE LARGEHOTEL GUESTROOM LIGHTS 2,HOTELLARGE BLDG_LIGHT_GUESTROOM_SCH_2013,BUILDING STORY 6 THERMALZONE,2935.68,79.2,20200.288,6.881,254.902,0.000,0.700,0.200,0.100,1.000,General,0.000,20200.288
 Lights Internal Gains Nominal, BUILDING STORY 3 THERMALZONE LARGEHOTEL CORRIDOR LIGHTS 3,HOTELLARGE BLDG_LIGHT_CORRIDOR_SCH_2013,BUILDING STORY 3 THERMALZONE,2935.68,79.2,6204.859,2.114,78.297,0.000,0.700,0.200,0.100,1.000,General,0.000,6204.859
 Lights Internal Gains Nominal, BUILDING STORY 3 THERMALZONE LARGEHOTEL GUESTROOM LIGHTS 3,HOTELLARGE BLDG_LIGHT_GUESTROOM_SCH_2013,BUILDING STORY 3 THERMALZONE,2935.68,79.2,20200.288,6.881,254.902,0.000,0.700,0.200,0.100,1.000,General,0.000,20200.288
 Lights Internal Gains Nominal, BUILDING STORY 5 THERMALZONE LARGEHOTEL CORRIDOR LIGHTS 4,HOTELLARGE BLDG_LIGHT_CORRIDOR_SCH_2013,BUILDING STORY 5 THERMALZONE,2935.68,79.2,6204.859,2.114,78.297,0.000,0.700,0.200,0.100,1.000,General,0.000,6204.859
 Lights Internal Gains Nominal, BUILDING STORY 5 THERMALZONE LARGEHOTEL GUESTROOM LIGHTS 4,HOTELLARGE BLDG_LIGHT_GUESTROOM_SCH_2013,BUILDING STORY 5 THERMALZONE,2935.68,79.2,20200.288,6.881,254.902,0.000,0.700,0.200,0.100,1.000,General,0.000,20200.288
 Lights Internal Gains Nominal, BUILDING STORY 7 THERMALZONE LARGEHOTEL CORRIDOR LIGHTS 5,HOTELLARGE BLDG_LIGHT_CORRIDOR_SCH_2013,BUILDING STORY 7 THERMALZONE,2935.68,79.2,6204.859,2.114,78.297,0.000,0.700,0.200,0.100,1.000,General,0.000,6204.859
 Lights Internal Gains Nominal, BUILDING STORY 7 THERMALZONE LARGEHOTEL GUESTROOM LIGHTS 5,HOTELLARGE BLDG_LIGHT_GUESTROOM_SCH_2013,BUILDING STORY 7 THERMALZONE,2935.68,79.2,20200.288,6.881,254.902,0.000,0.700,0.200,0.100,1.000,General,0.000,20200.288
 Lights Internal Gains Nominal, BUILDING STORY 8 THERMALZONE LARGEHOTEL CORRIDOR LIGHTS 6,HOTELLARGE BLDG_LIGHT_CORRIDOR_SCH_2013,BUILDING STORY 8 THERMALZONE,2935.68,79.2,6204.859,2.114,78.297,0.000,0.700,0.200,0.100,1.000,General,0.000,6204.859
 Lights Internal Gains Nominal, BUILDING STORY 8 THERMALZONE LARGEHOTEL GUESTROOM LIGHTS 6,HOTELLARGE BLDG_LIGHT_GUESTROOM_SCH_2013,BUILDING STORY 8 THERMALZONE,2935.68,79.2,20200.288,6.881,254.902,0.000,0.700,0.200,0.100,1.000,General,0.000,20200.288
 Lights Internal Gains Nominal, BUILDING STORY 9 THERMALZONE LARGEHOTEL CORRIDOR LIGHTS 7,HOTELLARGE BLDG_LIGHT_CORRIDOR_SCH_2013,BUILDING STORY 9 THERMALZONE,2935.68,79.2,6204.859,2.114,78.297,0.000,0.700,0.200,0.100,1.000,General,0.000,6204.859
 Lights Internal Gains Nominal, BUILDING STORY 9 THERMALZONE LARGEHOTEL GUESTROOM LIGHTS 7,HOTELLARGE BLDG_LIGHT_GUESTROOM_SCH_2013,BUILDING STORY 9 THERMALZONE,2935.68,79.2,20200.288,6.881,254.902,0.000,0.700,0.200,0.100,1.000,General,0.000,20200.288
 Lights Internal Gains Nominal, BUILDING STORY 10 THERMALZONE LARGEHOTEL CORRIDOR LIGHTS 8,HOTELLARGE BLDG_LIGHT_CORRIDOR_SCH_2013,BUILDING STORY 10 THERMALZONE,2935.68,79.2,6204.859,2.114,78.297,0.000,0.700,0.200,0.100,1.000,General,0.000,6204.859
 Lights Internal Gains Nominal, BUILDING STORY 10 THERMALZONE LARGEHOTEL GUESTROOM LIGHTS 8,HOTELLARGE BLDG_LIGHT_GUESTROOM_SCH_2013,BUILDING STORY 10 THERMALZONE,2935.68,79.2,20200.288,6.881,254.902,0.000,0.700,0.200,0.100,1.000,General,0.000,20200.288
! <ElectricEquipment Internal Gains Nominal>,Name,Schedule Name,Zone Name,Zone Floor Area {m2},# Zone Occupants,Equipment Level {W},Equipment/Floor Area {W/m2},Equipment per person {W/person},Fraction Latent,Fraction Radiant,Fraction Lost,Fraction Convected,End-Use SubCategory,Nominal Minimum Equipment Level {W},Nominal Maximum Equipment Level {W}
 ElectricEquipment Internal Gains Nominal, BUILDING STORY 1 THERMALZONE 13 ELEVATOR FANS,ELEVATOR SCHEDULE 3,BUILDING STORY 1 THERMALZONE,2935.68,996.4,402.238,0.137,0.404,0.000,0.500,0.000,0.500,Elevators,0.000,402.238
 ElectricEquipment Internal Gains Nominal, BUILDING STORY 1 THERMALZONE 13 ELEVATOR LIFT MOTORS,ELEVATOR SCHEDULE 1,BUILDING STORY 1 THERMALZONE,2935.68,996.4,264671.132,90.157,265.638,0.000,0.000,1.000,0.000,Elevators,0.000,264671.132
 ElectricEquipment Internal Gains Nominal, BUILDING STORY 1 THERMALZONE 13 ELEVATOR LIGHTS,ELEVATOR SCHEDULE 2,BUILDING STORY 1 THERMALZONE,2935.68,996.4,420.311,0.143,0.422,0.000,0.500,0.000,0.500,Elevators,0.000,420.311
 ElectricEquipment Internal Gains Nominal, BUILDING STORY 1 THERMALZONE LARGEHOTEL BANQUET ELEC EQUIP 1,HOTELLARGE KITCHEN_ELEC_EQUIP_SCH,BUILDING STORY 1 THERMALZONE,2935.68,996.4,34390.496,11.715,34.516,0.000,0.500,0.000,0.500,General,0.000,10317.149
 ElectricEquipment Internal Gains Nominal, BUILDING STORY 1 THERMALZONE LARGEHOTEL CAFE ELEC EQUIP 1,HOTELLARGE BLDG_EQUIP_SCH,BUILDING STORY 1 THERMALZONE,2935.68,996.4,3176.783,1.082,3.188,0.000,0.500,0.000,0.500,General,0.000,3176.783
 ElectricEquipment Internal Gains Nominal, BUILDING STORY 1 THERMALZONE LARGEHOTEL KITCHEN ELEC EQUIP 1,HOTELLARGE KITCHEN_ELEC_EQUIP_SCH,BUILDING STORY 1 THERMALZONE,2935.68,996.4,164396.597,55.999,164.997,0.200,0.500,0.100,0.200,General,0.000,49318.979
 ElectricEquipment Internal Gains Nominal, BUILDING STORY 1 THERMALZONE LARGEHOTEL LAUNDRY ELEC EQUIP 1,HOTELLARGE BLDG_EQUIP_SCH,BUILDING STORY 1 THERMALZONE,2935.68,996.4,15132.586,5.155,15.188,0.000,0.500,0.000,0.500,General,0.000,15132.586
 ElectricEquipment Internal Gains Nominal, BUILDING STORY 1 THERMALZONE LARGEHOTEL MECHANICAL ELEC EQUIP 1,HOTELLARGE BLDG_EQUIP_SCH,BUILDING STORY 1 THERMALZONE,2935.68,996.4,2774.901,0.945,2.785,0.000,0.500,0.000,0.500,General,0.000,2774.901
 ElectricEquipment Internal Gains Nominal, BUILDING STORY 1 THERMALZONE LARGEHOTEL RETAIL ELEC EQUIP 1,HOTELLARGE BLDG_EQUIP_SCH,BUILDING STORY 1 THERMALZONE,2935.68,996.4,4899.135,1.669,4.917,0.000,0.500,0.000,0.500,General,0.000,4899.135
 ElectricEquipment Internal Gains Nominal, BUILDING STORY 1 THERMALZONE LARGEHOTEL STORAGE ELEC EQUIP 1,HOTELLARGE BLDG_EQUIP_SCH,BUILDING STORY 1 THERMALZONE,2935.68,996.4,803.764,0.274,0.807,0.000,0.500,0.000,0.500,General,0.000,803.764
 ElectricEquipment Internal Gains Nominal, BUILDING STORY 4 THERMALZONE LARGEHOTEL BANQUET ELEC EQUIP 2,HOTELLARGE KITCHEN_ELEC_EQUIP_SCH,BUILDING STORY 4 THERMALZONE,2935.68,1625.3,106692.534,36.343,65.645,0.000,0.500,0.000,0.500,General,0.000,32007.760
 ElectricEquipment Internal Gains Nominal, BUILDING STORY 4 THERMALZONE LARGEHOTEL LOBBY ELEC EQUIP 1,HOTELLARGE BLDG_EQUIP_SCH,BUILDING STORY 4 THERMALZONE,2935.68,1625.3,11000.089,3.747,6.768,0.000,0.500,0.000,0.500,General,0.000,11000.089
 ElectricEquipment Internal Gains Nominal, BUILDING STORY 2 THERMALZONE LARGEHOTEL GUESTROOM ELEC EQUIP 1,HOTELLARGE GUESTROOM_EQP_SCH_ADVA,BUILDING STORY 2 THERMALZONE,2935.68,889.3,940.694,0.320,1.058,0.000,0.500,0.000,0.500,General,0.000,940.694
 ElectricEquipment Internal Gains Nominal, BUILDING STORY 2 THERMALZONE LARGEHOTEL LOBBY ELEC EQUIP 2,HOTELLARGE BLDG_EQUIP_SCH,BUILDING STORY 2 THERMALZONE,2935.68,889.3,22097.778,7.527,24.849,0.000,0.500,0.000,0.500,General,0.000,22097.778
 ElectricEquipment Internal Gains Nominal, BUILDING STORY 6 THERMALZONE LARGEHOTEL GUESTROOM ELEC EQUIP 2,HOTELLARGE GUESTROOM_EQP_SCH_ADVA,BUILDING STORY 6 THERMALZONE,2935.68,79.2,13918.221,4.741,175.630,0.000,0.500,0.000,0.500,General,0.000,13918.221
 ElectricEquipment Internal Gains Nominal, BUILDING STORY 3 THERMALZONE LARGEHOTEL GUESTROOM ELEC EQUIP 3,HOTELLARGE GUESTROOM_EQP_SCH_ADVA,BUILDING STORY 3 THERMALZONE,2935.68,79.2,13918.221,4.741,175.630,0.000,0.500,0.000,0.500,General,0.000,13918.221
 ElectricEquipment Internal Gains Nominal, BUILDING STORY 5 THERMALZONE LARGEHOTEL GUESTROOM ELEC EQUIP 4,HOTELLARGE GUESTROOM_EQP_SCH_ADVA,BUILDING STORY 5 THERMALZONE,2935.68,79.2,13918.221,4.741,175.630,0.000,0.500,0.000,0.500,General,0.000,13918.221
 ElectricEquipment Internal Gains Nominal, BUILDING STORY 7 THERMALZONE LARGEHOTEL GUESTROOM ELEC EQUIP 5,HOTELLARGE GUESTROOM_EQP_SCH_ADVA,BUILDING STORY 7 THERMALZONE,2935.68,79.2,13918.221,4.741,175.630,0.000,0.500,0.000,0.500,General,0.000,13918.221
 ElectricEquipment Internal Gains Nominal, BUILDING STORY 8 THERMALZONE LARGEHOTEL GUESTROOM ELEC EQUIP 6,HOTELLARGE GUESTROOM_EQP_SCH_ADVA,BUILDING STORY 8 THERMALZONE,2935.68,79.2,13918.221,4.741,175.630,0.000,0.500,0.000,0.500,General,0.000,13918.221
 ElectricEquipment Internal Gains Nominal, BUILDING STORY 9 THERMALZONE LARGEHOTEL GUESTROOM ELEC EQUIP 7,HOTELLARGE GUESTROOM_EQP_SCH_ADVA,BUILDING STORY 9 THERMALZONE,2935.68,79.2,13918.221,4.741,175.630,0.000,0.500,0.000,0.500,General,0.000,13918.221
 ElectricEquipment Internal Gains Nominal, BUILDING STORY 10 THERMALZONE LARGEHOTEL GUESTROOM ELEC EQUIP 8,HOTELLARGE GUESTROOM_EQP_SCH_ADVA,BUILDING STORY 10 THERMALZONE,2935.68,79.2,13918.221,4.741,175.630,0.000,0.500,0.000,0.500,General,0.000,13918.221
! <GasEquipment Internal Gains Nominal>,Name,Schedule Name,Zone Name,Zone Floor Area {m2},# Zone Occupants,Equipment Level {W},Equipment/Floor Area {W/m2},Equipment per person {W/person},Fraction Latent,Fraction Radiant,Fraction Lost,Fraction Convected,End-Use SubCategory,Nominal Minimum Equipment Level {W},Nominal Maximum Equipment Level {W}
 GasEquipment Internal Gains Nominal, BUILDING STORY 1 THERMALZONE LARGEHOTEL KITCHEN GAS EQUIP 1,HOTELLARGE KITCHEN_GAS_EQUIP_SCH,BUILDING STORY 1 THERMALZONE,2935.68,996.4,782923.156,266.692,785.782,0.100,0.200,0.700,0.000,General,0.000,234876.947
 GasEquipment Internal Gains Nominal, BUILDING STORY 1 THERMALZONE LARGEHOTEL LAUNDRY GAS EQUIP 1,HOTELLARGE BLDG_EQUIP_SCH,BUILDING STORY 1 THERMALZONE,2935.68,996.4,131577.125,44.820,132.058,0.000,0.500,0.000,0.500,General,0.000,131577.125
! <Shadowing/Sun Position Calculations Annual Simulations>, Calculation Method, Value {days}, Allowable Number Figures in Shadow Overlap {}, Polygon Clipping Algorithm, Sky Diffuse Modeling Algorithm, External Shading Calculation Method, Output External Shading Calculation Results, Disable Self-Shading Within Shading Zone Groups, Disable Self-Shading From Shading Zone Groups to Other Zones
Shadowing/Sun Position Calculations Annual Simulations,AverageOverDaysInFrequency,20,15000,SutherlandHodgman,SimpleSkyDiffuseModeling,InternalCalculation,No,No,No
! <Zone/Window Adjacency Daylighting Counts>, Zone Name, Number of Exterior Windows, Number of Exterior Windows in Adjacent Zones
Zone/Window Adjacency Daylighting Counts, BUILDING STORY 1 THERMALZONE,4,0
Zone/Window Adjacency Daylighting Counts, BUILDING STORY 10 THERMALZONE,4,0
Zone/Window Adjacency Daylighting Counts, BUILDING STORY 2 THERMALZONE,4,0
Zone/Window Adjacency Daylighting Counts, BUILDING STORY 3 THERMALZONE,4,0
Zone/Window Adjacency Daylighting Counts, BUILDING STORY 4 THERMALZONE,4,0
Zone/Window Adjacency Daylighting Counts, BUILDING STORY 5 THERMALZONE,4,0
Zone/Window Adjacency Daylighting Counts, BUILDING STORY 6 THERMALZONE,4,0
Zone/Window Adjacency Daylighting Counts, BUILDING STORY 7 THERMALZONE,4,0
Zone/Window Adjacency Daylighting Counts, BUILDING STORY 8 THERMALZONE,4,0
Zone/Window Adjacency Daylighting Counts, BUILDING STORY 9 THERMALZONE,4,0
! <Zone/Window Adjacency Daylighting Matrix>, Zone Name, Number of Adjacent Zones with Windows,Adjacent Zone Names - 1st 100 (max)
Zone/Window Adjacency Daylighting Matrix, BUILDING STORY 1 THERMALZONE,0
Zone/Window Adjacency Daylighting Matrix, BUILDING STORY 10 THERMALZONE,0
Zone/Window Adjacency Daylighting Matrix, BUILDING STORY 2 THERMALZONE,0
Zone/Window Adjacency Daylighting Matrix, BUILDING STORY 3 THERMALZONE,0
Zone/Window Adjacency Daylighting Matrix, BUILDING STORY 4 THERMALZONE,0
Zone/Window Adjacency Daylighting Matrix, BUILDING STORY 5 THERMALZONE,0
Zone/Window Adjacency Daylighting Matrix, BUILDING STORY 6 THERMALZONE,0
Zone/Window Adjacency Daylighting Matrix, BUILDING STORY 7 THERMALZONE,0
Zone/Window Adjacency Daylighting Matrix, BUILDING STORY 8 THERMALZONE,0
Zone/Window Adjacency Daylighting Matrix, BUILDING STORY 9 THERMALZONE,0
! <Water Heater Information>,Type,Name,Volume {m3},Maximum Capacity {W},Standard Rated Recovery Efficiency, Standard Rated Energy Factor
! <ZoneInfiltration Airflow Stats Nominal>,Name,Schedule Name,Zone Name, Zone Floor Area {m2}, # Zone Occupants,Design Volume Flow Rate {m3/s},Volume Flow Rate/Floor Area {m3/s-m2},Volume Flow Rate/Exterior Surface Area {m3/s-m2},ACH - Air Changes per Hour,Equation A - Constant Term Coefficient {},Equation B - Temperature Term Coefficient {1/C},Equation C - Velocity Term Coefficient {s/m}, Equation D - Velocity Squared Term Coefficient {s2/m2}
 ZoneInfiltration Airflow Stats Nominal, BUILDING STORY 1 THERMALZONE LARGEHOTEL BANQUET A  - STORY GROUND INFILTRATION,ALWAYS ON DISCRETE,BUILDING STORY 1 THERMALZONE,2935.68,996.4,2.681E-002,9.132E-006,4.113E-005,1.096E-002,0.000,0.000,0.224,0.000
 ZoneInfiltration Airflow Stats Nominal, BUILDING STORY 1 THERMALZONE LARGEHOTEL BANQUET C  - STORY GROUND INFILTRATION,ALWAYS ON DISCRETE,BUILDING STORY 1 THERMALZONE,2935.68,996.4,2.681E-002,9.132E-006,4.113E-005,1.096E-002,0.000,0.000,0.224,0.000
 ZoneInfiltration Airflow Stats Nominal, BUILDING STORY 1 THERMALZONE LARGEHOTEL CAFE A  - STORY GROUND INFILTRATION,ALWAYS ON DISCRETE,BUILDING STORY 1 THERMALZONE,2935.68,996.4,2.541E-002,8.655E-006,3.898E-005,1.039E-002,0.000,0.000,0.224,0.000
 ZoneInfiltration Airflow Stats Nominal, BUILDING STORY 1 THERMALZONE LARGEHOTEL CAFE A END_A - STORY GROUND INFILTRATION,ALWAYS ON DISCRETE,BUILDING STORY 1 THERMALZONE,2935.68,996.4,1.160E-002,3.950E-006,1.779E-005,4.740E-003,0.000,0.000,0.224,0.000
 ZoneInfiltration Airflow Stats Nominal, BUILDING STORY 1 THERMALZONE LARGEHOTEL CAFE B END_A - STORY GROUND INFILTRATION,ALWAYS ON DISCRETE,BUILDING STORY 1 THERMALZONE,2935.68,996.4,1.884E-002,6.417E-006,2.890E-005,7.700E-003,0.000,0.000,0.224,0.000
 ZoneInfiltration Airflow Stats Nominal, BUILDING STORY 1 THERMALZONE LARGEHOTEL CAFE C  - STORY GROUND INFILTRATION,ALWAYS ON DISCRETE,BUILDING STORY 1 THERMALZONE,2935.68,996.4,2.541E-002,8.655E-006,3.898E-005,1.039E-002,0.000,0.000,0.224,0.000
 ZoneInfiltration Airflow Stats Nominal, BUILDING STORY 1 THERMALZONE LARGEHOTEL CAFE C END_A - STORY GROUND INFILTRATION,ALWAYS ON DISCRETE,BUILDING STORY 1 THERMALZONE,2935.68,996.4,1.160E-002,3.950E-006,1.779E-005,4.740E-003,0.000,0.000,0.224,0.000
 ZoneInfiltration Airflow Stats Nominal, BUILDING STORY 1 THERMALZONE LARGEHOTEL KITCHEN A  - STORY GROUND INFILTRATION,ALWAYS ON DISCRETE,BUILDING STORY 1 THERMALZONE,2935.68,996.4,1.711E-002,5.827E-006,2.624E-005,6.993E-003,0.000,0.000,0.224,0.000
 ZoneInfiltration Airflow Stats Nominal, BUILDING STORY 1 THERMALZONE LARGEHOTEL KITCHEN C  - STORY GROUND INFILTRATION,ALWAYS ON DISCRETE,BUILDING STORY 1 THERMALZONE,2935.68,996.4,1.711E-002,5.827E-006,2.624E-005,6.993E-003,0.000,0.000,0.224,0.000
 ZoneInfiltration Airflow Stats Nominal, BUILDING STORY 1 THERMALZONE LARGEHOTEL LAUNDRY A  - STORY GROUND INFILTRATION,ALWAYS ON DISCRETE,BUILDING STORY 1 THERMALZONE,2935.68,996.4,1.297E-002,4.419E-006,1.990E-005,5.302E-003,0.000,0.000,0.224,0.000
 ZoneInfiltration Airflow Stats Nominal, BUILDING STORY 1 THERMALZONE LARGEHOTEL LAUNDRY C  - STORY GROUND INFILTRATION,ALWAYS ON DISCRETE,BUILDING STORY 1 THERMALZONE,2935.68,996.4,1.297E-002,4.419E-006,1.990E-005,5.302E-003,0.000,0.000,0.224,0.000
 ZoneInfiltration Airflow Stats Nominal, BUILDING STORY 1 THERMALZONE LARGEHOTEL MECHANICAL A  - STORY GROUND INFILTRATION,ALWAYS ON DISCRETE,BUILDING STORY 1 THERMALZONE,2935.68,996.4,2.146E-002,7.310E-006,3.292E-005,8.773E-003,0.000,0.000,0.224,0.000
 ZoneInfiltration Airflow Stats Nominal, BUILDING STORY 1 THERMALZONE LARGEHOTEL MECHANICAL A END_B - STORY GROUND INFILTRATION,ALWAYS ON DISCRETE,BUILDING STORY 1 THERMALZONE,2935.68,996.4,1.160E-002,3.950E-006,1.779E-005,4.740E-003,0.000,0.000,0.224,0.000
 ZoneInfiltration Airflow Stats Nominal, BUILDING STORY 1 THERMALZONE LARGEHOTEL MECHANICAL B END_B - STORY GROUND INFILTRATION,ALWAYS ON DISCRETE,BUILDING STORY 1 THERMALZONE,2935.68,996.4,1.884E-002,6.417E-006,2.890E-005,7.700E-003,0.000,0.000,0.224,0.000
 ZoneInfiltration Airflow Stats Nominal, BUILDING STORY 1 THERMALZONE LARGEHOTEL MECHANICAL C  - STORY GROUND INFILTRATION,ALWAYS ON DISCRETE,BUILDING STORY 1 THERMALZONE,2935.68,996.4,2.146E-002,7.310E-006,3.292E-005,8.773E-003,0.000,0.000,0.224,0.000
 ZoneInfiltration Airflow Stats Nominal, BUILDING STORY 1 THERMALZONE LARGEHOTEL MECHANICAL C END_B - STORY GROUND INFILTRATION,ALWAYS ON DISCRETE,BUILDING STORY 1 THERMALZONE,2935.68,996.4,1.160E-002,3.950E-006,1.779E-005,4.740E-003,0.000,0.000,0.224,0.000
 ZoneInfiltration Airflow Stats Nominal, BUILDING STORY 1 THERMALZONE LARGEHOTEL RETAIL A  - STORY GROUND INFILTRATION,ALWAYS ON DISCRETE,BUILDING STORY 1 THERMALZONE,2935.68,996.4,2.406E-002,8.197E-006,3.691E-005,9.836E-003,0.000,0.000,0.224,0.000
 ZoneInfiltration Airflow Stats Nominal, BUILDING STORY 1 THERMALZONE LARGEHOTEL RETAIL C  - STORY GROUND INFILTRATION,ALWAYS ON DISCRETE,BUILDING STORY 1 THERMALZONE,2935.68,996.4,2.406E-002,8.197E-006,3.691E-005,9.836E-003,0.000,0.000,0.224,0.000
 ZoneInfiltration Airflow Stats Nominal, BUILDING STORY 1 THERMALZONE LARGEHOTEL STORAGE A  - STORY GROUND INFILTRATION,ALWAYS ON DISCRETE,BUILDING STORY 1 THERMALZONE,2935.68,996.4,1.579E-002,5.379E-006,2.423E-005,6.455E-003,0.000,0.000,0.224,0.000
 ZoneInfiltration Airflow Stats Nominal, BUILDING STORY 1 THERMALZONE LARGEHOTEL STORAGE C  - STORY GROUND INFILTRATION,ALWAYS ON DISCRETE,BUILDING STORY 1 THERMALZONE,2935.68,996.4,1.579E-002,5.379E-006,2.423E-005,6.455E-003,0.000,0.000,0.224,0.000
 ZoneInfiltration Airflow Stats Nominal, BUILDING STORY 4 THERMALZONE LARGEHOTEL BANQUET A  - STORY MID INFILTRATION,ALWAYS ON DISCRETE,BUILDING STORY 4 THERMALZONE,2935.68,1625.3,7.737E-002,2.636E-005,1.187E-004,3.163E-002,0.000,0.000,0.224,0.000
 ZoneInfiltration Airflow Stats Nominal, BUILDING STORY 4 THERMALZONE LARGEHOTEL BANQUET A END_A - STORY MID INFILTRATION,ALWAYS ON DISCRETE,BUILDING STORY 4 THERMALZONE,2935.68,1625.3,1.160E-002,3.950E-006,1.779E-005,4.740E-003,0.000,0.000,0.224,0.000
 ZoneInfiltration Airflow Stats Nominal, BUILDING STORY 4 THERMALZONE LARGEHOTEL BANQUET B END_A - STORY MID INFILTRATION,ALWAYS ON DISCRETE,BUILDING STORY 4 THERMALZONE,2935.68,1625.3,1.884E-002,6.417E-006,2.890E-005,7.700E-003,0.000,0.000,0.224,0.000
 ZoneInfiltration Airflow Stats Nominal, BUILDING STORY 4 THERMALZONE LARGEHOTEL BANQUET C  - STORY MID INFILTRATION,ALWAYS ON DISCRETE,BUILDING STORY 4 THERMALZONE,2935.68,1625.3,7.737E-002,2.636E-005,1.187E-004,3.163E-002,0.000,0.000,0.224,0.000
 ZoneInfiltration Airflow Stats Nominal, BUILDING STORY 4 THERMALZONE LARGEHOTEL BANQUET C END_A - STORY MID INFILTRATION,ALWAYS ON DISCRETE,BUILDING STORY 4 THERMALZONE,2935.68,1625.3,1.160E-002,3.950E-006,1.779E-005,4.740E-003,0.000,0.000,0.224,0.000
 ZoneInfiltration Airflow Stats Nominal, BUILDING STORY 4 THERMALZONE LARGEHOTEL LOBBY A  - STORY MID INFILTRATION,ALWAYS ON DISCRETE,BUILDING STORY 4 THERMALZONE,2935.68,1625.3,6.624E-002,2.256E-005,1.016E-004,2.708E-002,0.000,0.000,0.224,0.000
 ZoneInfiltration Airflow Stats Nominal, BUILDING STORY 4 THERMALZONE LARGEHOTEL LOBBY A END_B - STORY MID INFILTRATION,ALWAYS ON DISCRETE,BUILDING STORY 4 THERMALZONE,2935.68,1625.3,1.160E-002,3.950E-006,1.779E-005,4.740E-003,0.000,0.000,0.224,0.000
 ZoneInfiltration Airflow Stats Nominal, BUILDING STORY 4 THERMALZONE LARGEHOTEL LOBBY B END_B - STORY MID INFILTRATION,ALWAYS ON DISCRETE,BUILDING STORY 4 THERMALZONE,2935.68,1625.3,1.884E-002,6.417E-006,2.890E-005,7.700E-003,0.000,0.000,0.224,0.000
 ZoneInfiltration Airflow Stats Nominal, BUILDING STORY 4 THERMALZONE LARGEHOTEL LOBBY C  - STORY MID INFILTRATION,ALWAYS ON DISCRETE,BUILDING STORY 4 THERMALZONE,2935.68,1625.3,6.624E-002,2.256E-005,1.016E-004,2.708E-002,0.000,0.000,0.224,0.000
 ZoneInfiltration Airflow Stats Nominal, BUILDING STORY 4 THERMALZONE LARGEHOTEL LOBBY C END_B - STORY MID INFILTRATION,ALWAYS ON DISCRETE,BUILDING STORY 4 THERMALZONE,2935.68,1625.3,1.160E-002,3.950E-006,1.779E-005,4.740E-003,0.000,0.000,0.224,0.000
 ZoneInfiltration Airflow Stats Nominal, BUILDING STORY 2 THERMALZONE LARGEHOTEL CORRIDOR B END_B - STORY MID2 INFILTRATION,ALWAYS ON DISCRETE,BUILDING STORY 2 THERMALZONE,2935.68,889.3,9.054E-003,3.084E-006,1.389E-005,3.701E-003,0.000,0.000,0.224,0.000
 ZoneInfiltration Airflow Stats Nominal, BUILDING STORY 2 THERMALZONE LARGEHOTEL GUESTROOM A  - STORY MID2 INFILTRATION,ALWAYS ON DISCRETE,BUILDING STORY 2 THERMALZONE,2935.68,889.3,4.692E-003,1.598E-006,7.198E-006,1.918E-003,0.000,0.000,0.224,0.000
 ZoneInfiltration Airflow Stats Nominal, BUILDING STORY 2 THERMALZONE LARGEHOTEL GUESTROOM A END_B - STORY MID2 INFILTRATION,ALWAYS ON DISCRETE,BUILDING STORY 2 THERMALZONE,2935.68,889.3,1.649E-002,5.616E-006,2.529E-005,6.739E-003,0.000,0.000,0.224,0.000
 ZoneInfiltration Airflow Stats Nominal, BUILDING STORY 2 THERMALZONE LARGEHOTEL GUESTROOM C  - STORY MID2 INFILTRATION,ALWAYS ON DISCRETE,BUILDING STORY 2 THERMALZONE,2935.68,889.3,4.692E-003,1.598E-006,7.198E-006,1.918E-003,0.000,0.000,0.224,0.000
 ZoneInfiltration Airflow Stats Nominal, BUILDING STORY 2 THERMALZONE LARGEHOTEL GUESTROOM C END_B - STORY MID2 INFILTRATION,ALWAYS ON DISCRETE,BUILDING STORY 2 THERMALZONE,2935.68,889.3,1.649E-002,5.616E-006,2.529E-005,6.739E-003,0.000,0.000,0.224,0.000
 ZoneInfiltration Airflow Stats Nominal, BUILDING STORY 2 THERMALZONE LARGEHOTEL LOBBY A  - STORY MID2 INFILTRATION,ALWAYS ON DISCRETE,BUILDING STORY 2 THERMALZONE,2935.68,889.3,0.139,4.732E-005,2.131E-004,5.679E-002,0.000,0.000,0.224,0.000
 ZoneInfiltration Airflow Stats Nominal, BUILDING STORY 2 THERMALZONE LARGEHOTEL LOBBY A END_A - STORY MID2 INFILTRATION,ALWAYS ON DISCRETE,BUILDING STORY 2 THERMALZONE,2935.68,889.3,1.160E-002,3.950E-006,1.779E-005,4.740E-003,0.000,0.000,0.224,0.000
 ZoneInfiltration Airflow Stats Nominal, BUILDING STORY 2 THERMALZONE LARGEHOTEL LOBBY B END_A - STORY MID2 INFILTRATION,ALWAYS ON DISCRETE,BUILDING STORY 2 THERMALZONE,2935.68,889.3,1.884E-002,6.417E-006,2.890E-005,7.700E-003,0.000,0.000,0.224,0.000
 ZoneInfiltration Airflow Stats Nominal, BUILDING STORY 2 THERMALZONE LARGEHOTEL LOBBY C  - STORY MID2 INFILTRATION,ALWAYS ON DISCRETE,BUILDING STORY 2 THERMALZONE,2935.68,889.3,0.139,4.732E-005,2.131E-004,5.679E-002,0.000,0.000,0.224,0.000
 ZoneInfiltration Airflow Stats Nominal, BUILDING STORY 2 THERMALZONE LARGEHOTEL LOBBY C END_A - STORY MID2 INFILTRATION,ALWAYS ON DISCRETE,BUILDING STORY 2 THERMALZONE,2935.68,889.3,1.160E-002,3.950E-006,1.779E-005,4.740E-003,0.000,0.000,0.224,0.000
 ZoneInfiltration Airflow Stats Nominal, BUILDING STORY 6 THERMALZONE LARGEHOTEL CORRIDOR B END_A - STORY MID3 INFILTRATION,ALWAYS ON DISCRETE,BUILDING STORY 6 THERMALZONE,2935.68,79.2,9.054E-003,3.084E-006,1.389E-005,3.701E-003,0.000,0.000,0.224,0.000
 ZoneInfiltration Airflow Stats Nominal, BUILDING STORY 6 THERMALZONE LARGEHOTEL CORRIDOR B END_B - STORY MID3 INFILTRATION,ALWAYS ON DISCRETE,BUILDING STORY 6 THERMALZONE,2935.68,79.2,9.054E-003,3.084E-006,1.389E-005,3.701E-003,0.000,0.000,0.224,0.000
 ZoneInfiltration Airflow Stats Nominal, BUILDING STORY 6 THERMALZONE LARGEHOTEL GUESTROOM A  - STORY MID3 INFILTRATION,ALWAYS ON DISCRETE,BUILDING STORY 6 THERMALZONE,2935.68,79.2,0.144,4.892E-005,2.203E-004,5.870E-002,0.000,0.000,0.224,0.000
 ZoneInfiltration Airflow Stats Nominal, BUILDING STORY 6 THERMALZONE LARGEHOTEL GUESTROOM A END_A - STORY MID3 INFILTRATION,ALWAYS ON DISCRETE,BUILDING STORY 6 THERMALZONE,2935.68,79.2,1.649E-002,5.616E-006,2.529E-005,6.739E-003,0.000,0.000,0.224,0.000
 ZoneInfiltration Airflow Stats Nominal, BUILDING STORY 6 THERMALZONE LARGEHOTEL GUESTROOM A END_B - STORY MID3 INFILTRATION,ALWAYS ON DISCRETE,BUILDING STORY 6 THERMALZONE,2935.68,79.2,1.649E-002,5.616E-006,2.529E-005,6.739E-003,0.000,0.000,0.224,0.000
 ZoneInfiltration Airflow Stats Nominal, BUILDING STORY 6 THERMALZONE LARGEHOTEL GUESTROOM C  - STORY MID3 INFILTRATION,ALWAYS ON DISCRETE,BUILDING STORY 6 THERMALZONE,2935.68,79.2,0.144,4.892E-005,2.203E-004,5.870E-002,0.000,0.000,0.224,0.000
 ZoneInfiltration Airflow Stats Nominal, BUILDING STORY 6 THERMALZONE LARGEHOTEL GUESTROOM C END_A - STORY MID3 INFILTRATION,ALWAYS ON DISCRETE,BUILDING STORY 6 THERMALZONE,2935.68,79.2,1.649E-002,5.616E-006,2.529E-005,6.739E-003,0.000,0.000,0.224,0.000
 ZoneInfiltration Airflow Stats Nominal, BUILDING STORY 6 THERMALZONE LARGEHOTEL GUESTROOM C END_B - STORY MID3 INFILTRATION,ALWAYS ON DISCRETE,BUILDING STORY 6 THERMALZONE,2935.68,79.2,1.649E-002,5.616E-006,2.529E-005,6.739E-003,0.000,0.000,0.224,0.000
 ZoneInfiltration Airflow Stats Nominal, BUILDING STORY 3 THERMALZONE LARGEHOTEL CORRIDOR B END_A - STORY MID4 INFILTRATION,ALWAYS ON DISCRETE,BUILDING STORY 3 THERMALZONE,2935.68,79.2,9.054E-003,3.084E-006,1.389E-005,3.701E-003,0.000,0.000,0.224,0.000
 ZoneInfiltration Airflow Stats Nominal, BUILDING STORY 3 THERMALZONE LARGEHOTEL CORRIDOR B END_B - STORY MID4 INFILTRATION,ALWAYS ON DISCRETE,BUILDING STORY 3 THERMALZONE,2935.68,79.2,9.054E-003,3.084E-006,1.389E-005,3.701E-003,0.000,0.000,0.224,0.000
 ZoneInfiltration Airflow Stats Nominal, BUILDING STORY 3 THERMALZONE LARGEHOTEL GUESTROOM A  - STORY MID4 INFILTRATION,ALWAYS ON DISCRETE,BUILDING STORY 3 THERMALZONE,2935.68,79.2,0.144,4.892E-005,2.203E-004,5.870E-002,0.000,0.000,0.224,0.000
 ZoneInfiltration Airflow Stats Nominal, BUILDING STORY 3 THERMALZONE LARGEHOTEL GUESTROOM A END_A - STORY MID4 INFILTRATION,ALWAYS ON DISCRETE,BUILDING STORY 3 THERMALZONE,2935.68,79.2,1.649E-002,5.616E-006,2.529E-005,6.739E-003,0.000,0.000,0.224,0.000
 ZoneInfiltration Airflow Stats Nominal, BUILDING STORY 3 THERMALZONE LARGEHOTEL GUESTROOM A END_B - STORY MID4 INFILTRATION,ALWAYS ON DISCRETE,BUILDING STORY 3 THERMALZONE,2935.68,79.2,1.649E-002,5.616E-006,2.529E-005,6.739E-003,0.000,0.000,0.224,0.000
 ZoneInfiltration Airflow Stats Nominal, BUILDING STORY 3 THERMALZONE LARGEHOTEL GUESTROOM C  - STORY MID4 INFILTRATION,ALWAYS ON DISCRETE,BUILDING STORY 3 THERMALZONE,2935.68,79.2,0.144,4.892E-005,2.203E-004,5.870E-002,0.000,0.000,0.224,0.000
 ZoneInfiltration Airflow Stats Nominal, BUILDING STORY 3 THERMALZONE LARGEHOTEL GUESTROOM C END_A - STORY MID4 INFILTRATION,ALWAYS ON DISCRETE,BUILDING STORY 3 THERMALZONE,2935.68,79.2,1.649E-002,5.616E-006,2.529E-005,6.739E-003,0.000,0.000,0.224,0.000
 ZoneInfiltration Airflow Stats Nominal, BUILDING STORY 3 THERMALZONE LARGEHOTEL GUESTROOM C END_B - STORY MID4 INFILTRATION,ALWAYS ON DISCRETE,BUILDING STORY 3 THERMALZONE,2935.68,79.2,1.649E-002,5.616E-006,2.529E-005,6.739E-003,0.000,0.000,0.224,0.000
 ZoneInfiltration Airflow Stats Nominal, BUILDING STORY 5 THERMALZONE LARGEHOTEL CORRIDOR B END_A - STORY MID5 INFILTRATION,ALWAYS ON DISCRETE,BUILDING STORY 5 THERMALZONE,2935.68,79.2,9.054E-003,3.084E-006,1.389E-005,3.701E-003,0.000,0.000,0.224,0.000
 ZoneInfiltration Airflow Stats Nominal, BUILDING STORY 5 THERMALZONE LARGEHOTEL CORRIDOR B END_B - STORY MID5 INFILTRATION,ALWAYS ON DISCRETE,BUILDING STORY 5 THERMALZONE,2935.68,79.2,9.054E-003,3.084E-006,1.389E-005,3.701E-003,0.000,0.000,0.224,0.000
 ZoneInfiltration Airflow Stats Nominal, BUILDING STORY 5 THERMALZONE LARGEHOTEL GUESTROOM A  - STORY MID5 INFILTRATION,ALWAYS ON DISCRETE,BUILDING STORY 5 THERMALZONE,2935.68,79.2,0.144,4.892E-005,2.203E-004,5.870E-002,0.000,0.000,0.224,0.000
 ZoneInfiltration Airflow Stats Nominal, BUILDING STORY 5 THERMALZONE LARGEHOTEL GUESTROOM A END_A - STORY MID5 INFILTRATION,ALWAYS ON DISCRETE,BUILDING STORY 5 THERMALZONE,2935.68,79.2,1.649E-002,5.616E-006,2.529E-005,6.739E-003,0.000,0.000,0.224,0.000
 ZoneInfiltration Airflow Stats Nominal, BUILDING STORY 5 THERMALZONE LARGEHOTEL GUESTROOM A END_B - STORY MID5 INFILTRATION,ALWAYS ON DISCRETE,BUILDING STORY 5 THERMALZONE,2935.68,79.2,1.649E-002,5.616E-006,2.529E-005,6.739E-003,0.000,0.000,0.224,0.000
 ZoneInfiltration Airflow Stats Nominal, BUILDING STORY 5 THERMALZONE LARGEHOTEL GUESTROOM C  - STORY MID5 INFILTRATION,ALWAYS ON DISCRETE,BUILDING STORY 5 THERMALZONE,2935.68,79.2,0.144,4.892E-005,2.203E-004,5.870E-002,0.000,0.000,0.224,0.000
 ZoneInfiltration Airflow Stats Nominal, BUILDING STORY 5 THERMALZONE LARGEHOTEL GUESTROOM C END_A - STORY MID5 INFILTRATION,ALWAYS ON DISCRETE,BUILDING STORY 5 THERMALZONE,2935.68,79.2,1.649E-002,5.616E-006,2.529E-005,6.739E-003,0.000,0.000,0.224,0.000
 ZoneInfiltration Airflow Stats Nominal, BUILDING STORY 5 THERMALZONE LARGEHOTEL GUESTROOM C END_B - STORY MID5 INFILTRATION,ALWAYS ON DISCRETE,BUILDING STORY 5 THERMALZONE,2935.68,79.2,1.649E-002,5.616E-006,2.529E-005,6.739E-003,0.000,0.000,0.224,0.000
 ZoneInfiltration Airflow Stats Nominal, BUILDING STORY 7 THERMALZONE LARGEHOTEL CORRIDOR B END_A - STORY MID6 INFILTRATION,ALWAYS ON DISCRETE,BUILDING STORY 7 THERMALZONE,2935.68,79.2,9.054E-003,3.084E-006,1.389E-005,3.701E-003,0.000,0.000,0.224,0.000
 ZoneInfiltration Airflow Stats Nominal, BUILDING STORY 7 THERMALZONE LARGEHOTEL CORRIDOR B END_B - STORY MID6 INFILTRATION,ALWAYS ON DISCRETE,BUILDING STORY 7 THERMALZONE,2935.68,79.2,9.054E-003,3.084E-006,1.389E-005,3.701E-003,0.000,0.000,0.224,0.000
 ZoneInfiltration Airflow Stats Nominal, BUILDING STORY 7 THERMALZONE LARGEHOTEL GUESTROOM A  - STORY MID6 INFILTRATION,ALWAYS ON DISCRETE,BUILDING STORY 7 THERMALZONE,2935.68,79.2,0.144,4.892E-005,2.203E-004,5.870E-002,0.000,0.000,0.224,0.000
 ZoneInfiltration Airflow Stats Nominal, BUILDING STORY 7 THERMALZONE LARGEHOTEL GUESTROOM A END_A - STORY MID6 INFILTRATION,ALWAYS ON DISCRETE,BUILDING STORY 7 THERMALZONE,2935.68,79.2,1.649E-002,5.616E-006,2.529E-005,6.739E-003,0.000,0.000,0.224,0.000
 ZoneInfiltration Airflow Stats Nominal, BUILDING STORY 7 THERMALZONE LARGEHOTEL GUESTROOM A END_B - STORY MID6 INFILTRATION,ALWAYS ON DISCRETE,BUILDING STORY 7 THERMALZONE,2935.68,79.2,1.649E-002,5.616E-006,2.529E-005,6.739E-003,0.000,0.000,0.224,0.000
 ZoneInfiltration Airflow Stats Nominal, BUILDING STORY 7 THERMALZONE LARGEHOTEL GUESTROOM C  - STORY MID6 INFILTRATION,ALWAYS ON DISCRETE,BUILDING STORY 7 THERMALZONE,2935.68,79.2,0.144,4.892E-005,2.203E-004,5.870E-002,0.000,0.000,0.224,0.000
 ZoneInfiltration Airflow Stats Nominal, BUILDING STORY 7 THERMALZONE LARGEHOTEL GUESTROOM C END_A - STORY MID6 INFILTRATION,ALWAYS ON DISCRETE,BUILDING STORY 7 THERMALZONE,2935.68,79.2,1.649E-002,5.616E-006,2.529E-005,6.739E-003,0.000,0.000,0.224,0.000
 ZoneInfiltration Airflow Stats Nominal, BUILDING STORY 7 THERMALZONE LARGEHOTEL GUESTROOM C END_B - STORY MID6 INFILTRATION,ALWAYS ON DISCRETE,BUILDING STORY 7 THERMALZONE,2935.68,79.2,1.649E-002,5.616E-006,2.529E-005,6.739E-003,0.000,0.000,0.224,0.000
 ZoneInfiltration Airflow Stats Nominal, BUILDING STORY 8 THERMALZONE LARGEHOTEL CORRIDOR B END_A - STORY MID7 INFILTRATION,ALWAYS ON DISCRETE,BUILDING STORY 8 THERMALZONE,2935.68,79.2,4.983E-002,1.697E-005,1.389E-005,2.037E-002,0.000,0.000,0.224,0.000
 ZoneInfiltration Airflow Stats Nominal, BUILDING STORY 8 THERMALZONE LARGEHOTEL CORRIDOR B END_B - STORY MID7 INFILTRATION,ALWAYS ON DISCRETE,BUILDING STORY 8 THERMALZONE,2935.68,79.2,4.983E-002,1.697E-005,1.389E-005,2.037E-002,0.000,0.000,0.224,0.000
 ZoneInfiltration Airflow Stats Nominal, BUILDING STORY 8 THERMALZONE LARGEHOTEL GUESTROOM A  - STORY MID7 INFILTRATION,ALWAYS ON DISCRETE,BUILDING STORY 8 THERMALZONE,2935.68,79.2,0.790,2.692E-004,2.203E-004,0.323,0.000,0.000,0.224,0.000
 ZoneInfiltration Airflow Stats Nominal, BUILDING STORY 8 THERMALZONE LARGEHOTEL GUESTROOM A END_A - STORY MID7 INFILTRATION,ALWAYS ON DISCRETE,BUILDING STORY 8 THERMALZONE,2935.68,79.2,9.074E-002,3.091E-005,2.529E-005,3.709E-002,0.000,0.000,0.224,0.000
 ZoneInfiltration Airflow Stats Nominal, BUILDING STORY 8 THERMALZONE LARGEHOTEL GUESTROOM A END_B - STORY MID7 INFILTRATION,ALWAYS ON DISCRETE,BUILDING STORY 8 THERMALZONE,2935.68,79.2,9.074E-002,3.091E-005,2.529E-005,3.709E-002,0.000,0.000,0.224,0.000
 ZoneInfiltration Airflow Stats Nominal, BUILDING STORY 8 THERMALZONE LARGEHOTEL GUESTROOM C  - STORY MID7 INFILTRATION,ALWAYS ON DISCRETE,BUILDING STORY 8 THERMALZONE,2935.68,79.2,0.790,2.692E-004,2.203E-004,0.323,0.000,0.000,0.224,0.000
 ZoneInfiltration Airflow Stats Nominal, BUILDING STORY 8 THERMALZONE LARGEHOTEL GUESTROOM C END_A - STORY MID7 INFILTRATION,ALWAYS ON DISCRETE,BUILDING STORY 8 THERMALZONE,2935.68,79.2,9.074E-002,3.091E-005,2.529E-005,3.709E-002,0.000,0.000,0.224,0.000
 ZoneInfiltration Airflow Stats Nominal, BUILDING STORY 8 THERMALZONE LARGEHOTEL GUESTROOM C END_B - STORY MID7 INFILTRATION,ALWAYS ON DISCRETE,BUILDING STORY 8 THERMALZONE,2935.68,79.2,9.074E-002,3.091E-005,2.529E-005,3.709E-002,0.000,0.000,0.224,0.000
 ZoneInfiltration Airflow Stats Nominal, BUILDING STORY 9 THERMALZONE LARGEHOTEL CORRIDOR B END_A - STORY MID8 INFILTRATION,ALWAYS ON DISCRETE,BUILDING STORY 9 THERMALZONE,2935.68,79.2,9.054E-003,3.084E-006,1.389E-005,3.701E-003,0.000,0.000,0.224,0.000
 ZoneInfiltration Airflow Stats Nominal, BUILDING STORY 9 THERMALZONE LARGEHOTEL CORRIDOR B END_B - STORY MID8 INFILTRATION,ALWAYS ON DISCRETE,BUILDING STORY 9 THERMALZONE,2935.68,79.2,9.054E-003,3.084E-006,1.389E-005,3.701E-003,0.000,0.000,0.224,0.000
 ZoneInfiltration Airflow Stats Nominal, BUILDING STORY 9 THERMALZONE LARGEHOTEL GUESTROOM A  - STORY MID8 INFILTRATION,ALWAYS ON DISCRETE,BUILDING STORY 9 THERMALZONE,2935.68,79.2,0.144,4.892E-005,2.203E-004,5.870E-002,0.000,0.000,0.224,0.000
 ZoneInfiltration Airflow Stats Nominal, BUILDING STORY 9 THERMALZONE LARGEHOTEL GUESTROOM A END_A - STORY MID8 INFILTRATION,ALWAYS ON DISCRETE,BUILDING STORY 9 THERMALZONE,2935.68,79.2,1.649E-002,5.616E-006,2.529E-005,6.739E-003,0.000,0.000,0.224,0.000
 ZoneInfiltration Airflow Stats Nominal, BUILDING STORY 9 THERMALZONE LARGEHOTEL GUESTROOM A END_B - STORY MID8 INFILTRATION,ALWAYS ON DISCRETE,BUILDING STORY 9 THERMALZONE,2935.68,79.2,1.649E-002,5.616E-006,2.529E-005,6.739E-003,0.000,0.000,0.224,0.000
 ZoneInfiltration Airflow Stats Nominal, BUILDING STORY 9 THERMALZONE LARGEHOTEL GUESTROOM C  - STORY MID8 INFILTRATION,ALWAYS ON DISCRETE,BUILDING STORY 9 THERMALZONE,2935.68,79.2,0.144,4.892E-005,2.203E-004,5.870E-002,0.000,0.000,0.224,0.000
 ZoneInfiltration Airflow Stats Nominal, BUILDING STORY 9 THERMALZONE LARGEHOTEL GUESTROOM C END_A - STORY MID8 INFILTRATION,ALWAYS ON DISCRETE,BUILDING STORY 9 THERMALZONE,2935.68,79.2,1.649E-002,5.616E-006,2.529E-005,6.739E-003,0.000,0.000,0.224,0.000
 ZoneInfiltration Airflow Stats Nominal, BUILDING STORY 9 THERMALZONE LARGEHOTEL GUESTROOM C END_B - STORY MID8 INFILTRATION,ALWAYS ON DISCRETE,BUILDING STORY 9 THERMALZONE,2935.68,79.2,1.649E-002,5.616E-006,2.529E-005,6.739E-003,0.000,0.000,0.224,0.000
 ZoneInfiltration Airflow Stats Nominal, BUILDING STORY 10 THERMALZONE LARGEHOTEL CORRIDOR B END_A - STORY TOP INFILTRATION,ALWAYS ON DISCRETE,BUILDING STORY 10 THERMALZONE,2935.68,79.2,1.161E-002,3.955E-006,3.237E-006,4.746E-003,0.000,0.000,0.224,0.000
 ZoneInfiltration Airflow Stats Nominal, BUILDING STORY 10 THERMALZONE LARGEHOTEL CORRIDOR B END_B - STORY TOP INFILTRATION,ALWAYS ON DISCRETE,BUILDING STORY 10 THERMALZONE,2935.68,79.2,1.161E-002,3.955E-006,3.237E-006,4.746E-003,0.000,0.000,0.224,0.000
 ZoneInfiltration Airflow Stats Nominal, BUILDING STORY 10 THERMALZONE LARGEHOTEL GUESTROOM A  - STORY TOP INFILTRATION,ALWAYS ON DISCRETE,BUILDING STORY 10 THERMALZONE,2935.68,79.2,0.184,6.274E-005,5.134E-005,7.529E-002,0.000,0.000,0.224,0.000
 ZoneInfiltration Airflow Stats Nominal, BUILDING STORY 10 THERMALZONE LARGEHOTEL GUESTROOM A END_A - STORY TOP INFILTRATION,ALWAYS ON DISCRETE,BUILDING STORY 10 THERMALZONE,2935.68,79.2,2.114E-002,7.202E-006,5.894E-006,8.643E-003,0.000,0.000,0.224,0.000
 ZoneInfiltration Airflow Stats Nominal, BUILDING STORY 10 THERMALZONE LARGEHOTEL GUESTROOM A END_B - STORY TOP INFILTRATION,ALWAYS ON DISCRETE,BUILDING STORY 10 THERMALZONE,2935.68,79.2,2.114E-002,7.202E-006,5.894E-006,8.643E-003,0.000,0.000,0.224,0.000
 ZoneInfiltration Airflow Stats Nominal, BUILDING STORY 10 THERMALZONE LARGEHOTEL GUESTROOM C  - STORY TOP INFILTRATION,ALWAYS ON DISCRETE,BUILDING STORY 10 THERMALZONE,2935.68,79.2,0.184,6.274E-005,5.134E-005,7.529E-002,0.000,0.000,0.224,0.000
 ZoneInfiltration Airflow Stats Nominal, BUILDING STORY 10 THERMALZONE LARGEHOTEL GUESTROOM C END_A - STORY TOP INFILTRATION,ALWAYS ON DISCRETE,BUILDING STORY 10 THERMALZONE,2935.68,79.2,2.114E-002,7.202E-006,5.894E-006,8.643E-003,0.000,0.000,0.224,0.000
 ZoneInfiltration Airflow Stats Nominal, BUILDING STORY 10 THERMALZONE LARGEHOTEL GUESTROOM C END_B - STORY TOP INFILTRATION,ALWAYS ON DISCRETE,BUILDING STORY 10 THERMALZONE,2935.68,79.2,2.114E-002,7.202E-006,5.894E-006,8.643E-003,0.000,0.000,0.224,0.000
! <AirFlow Model>, Simple
 AirFlow Model, Simple
! <RoomAir Model>, Zone Name, Mixing/Mundt/UCSDDV/UCSDCV/UCSDUFI/UCSDUFE/User Defined
RoomAir Model,BUILDING STORY 1 THERMALZONE,Mixing/Well-Stirred
RoomAir Model,BUILDING STORY 10 THERMALZONE,Mixing/Well-Stirred
RoomAir Model,BUILDING STORY 2 THERMALZONE,Mixing/Well-Stirred
RoomAir Model,BUILDING STORY 3 THERMALZONE,Mixing/Well-Stirred
RoomAir Model,BUILDING STORY 4 THERMALZONE,Mixing/Well-Stirred
RoomAir Model,BUILDING STORY 5 THERMALZONE,Mixing/Well-Stirred
RoomAir Model,BUILDING STORY 6 THERMALZONE,Mixing/Well-Stirred
RoomAir Model,BUILDING STORY 7 THERMALZONE,Mixing/Well-Stirred
RoomAir Model,BUILDING STORY 8 THERMALZONE,Mixing/Well-Stirred
RoomAir Model,BUILDING STORY 9 THERMALZONE,Mixing/Well-Stirred
! <AirflowNetwork Model:Control>, No Multizone or Distribution/Multizone with Distribution/Multizone without Distribution/Multizone with Distribution only during Fan Operation
AirflowNetwork Model:Control,NoMultizoneOrDistribution
! <Zone Volume Capacitance Multiplier>, Sensible Heat Capacity Multiplier, Moisture Capacity Multiplier, Carbon Dioxide Capacity Multiplier, Generic Contaminant Capacity Multiplier
Zone Volume Capacitance Multiplier,   1.000 ,   1.000,   1.000,   1.000
! <Load Timesteps in Zone Design Calculation Averaging Window>, Value
 Load Timesteps in Zone Design Calculation Averaging Window,    1
! <Heating Sizing Factor Information>, Sizing Factor ID, Value
 Heating Sizing Factor Information, Global,   1.2500    
 Heating Sizing Factor Information, Zone BUILDING STORY 1 THERMALZONE,   1.2500    
 Heating Sizing Factor Information, Zone BUILDING STORY 10 THERMALZONE,   1.2500    
 Heating Sizing Factor Information, Zone BUILDING STORY 2 THERMALZONE,   1.2500    
 Heating Sizing Factor Information, Zone BUILDING STORY 3 THERMALZONE,   1.2500    
 Heating Sizing Factor Information, Zone BUILDING STORY 4 THERMALZONE,   1.2500    
 Heating Sizing Factor Information, Zone BUILDING STORY 5 THERMALZONE,   1.2500    
 Heating Sizing Factor Information, Zone BUILDING STORY 6 THERMALZONE,   1.2500    
 Heating Sizing Factor Information, Zone BUILDING STORY 7 THERMALZONE,   1.2500    
 Heating Sizing Factor Information, Zone BUILDING STORY 8 THERMALZONE,   1.2500    
 Heating Sizing Factor Information, Zone BUILDING STORY 9 THERMALZONE,   1.2500    
! <Cooling Sizing Factor Information>, Sizing Factor ID, Value
 Cooling Sizing Factor Information, Global,   1.1500    
 Cooling Sizing Factor Information, Zone BUILDING STORY 1 THERMALZONE,   1.1500    
 Cooling Sizing Factor Information, Zone BUILDING STORY 10 THERMALZONE,   1.1500    
 Cooling Sizing Factor Information, Zone BUILDING STORY 2 THERMALZONE,   1.1500    
 Cooling Sizing Factor Information, Zone BUILDING STORY 3 THERMALZONE,   1.1500    
 Cooling Sizing Factor Information, Zone BUILDING STORY 4 THERMALZONE,   1.1500    
 Cooling Sizing Factor Information, Zone BUILDING STORY 5 THERMALZONE,   1.1500    
 Cooling Sizing Factor Information, Zone BUILDING STORY 6 THERMALZONE,   1.1500    
 Cooling Sizing Factor Information, Zone BUILDING STORY 7 THERMALZONE,   1.1500    
 Cooling Sizing Factor Information, Zone BUILDING STORY 8 THERMALZONE,   1.1500    
 Cooling Sizing Factor Information, Zone BUILDING STORY 9 THERMALZONE,   1.1500    
! <Sky Daylight Factors>, MonthAndDay, Zone Name, Window Name, Daylight Fac: Ref Pt #1, Daylight Fac: Ref Pt #2
 Clear Sky Daylight Factors,07/21,BUILDING STORY 1 THERMALZONE,SUB SURFACE 2,0.0000,0.0000
 Clear Turbid Sky Daylight Factors,07/21,BUILDING STORY 1 THERMALZONE,SUB SURFACE 2,0.0000,0.0000
 Intermediate Sky Daylight Factors,07/21,BUILDING STORY 1 THERMALZONE,SUB SURFACE 2,0.0000,0.0000
 Overcast Sky Daylight Factors,07/21,BUILDING STORY 1 THERMALZONE,SUB SURFACE 2,0.0000,0.0000
 Clear Sky Daylight Factors,07/21,BUILDING STORY 1 THERMALZONE,SUB SURFACE 1,3.7051E-004,3.7302E-004
 Clear Turbid Sky Daylight Factors,07/21,BUILDING STORY 1 THERMALZONE,SUB SURFACE 1,3.3299E-004,3.3488E-004
 Intermediate Sky Daylight Factors,07/21,BUILDING STORY 1 THERMALZONE,SUB SURFACE 1,2.8676E-004,2.8748E-004
 Overcast Sky Daylight Factors,07/21,BUILDING STORY 1 THERMALZONE,SUB SURFACE 1,3.4685E-004,3.4789E-004
 Clear Sky Daylight Factors,07/21,BUILDING STORY 1 THERMALZONE,SUB SURFACE 4,2.8039E-004,2.8039E-004
 Clear Turbid Sky Daylight Factors,07/21,BUILDING STORY 1 THERMALZONE,SUB SURFACE 4,2.4156E-004,2.4156E-004
 Intermediate Sky Daylight Factors,07/21,BUILDING STORY 1 THERMALZONE,SUB SURFACE 4,1.9379E-004,1.9379E-004
 Overcast Sky Daylight Factors,07/21,BUILDING STORY 1 THERMALZONE,SUB SURFACE 4,3.0132E-004,3.0132E-004
 Clear Sky Daylight Factors,07/21,BUILDING STORY 1 THERMALZONE,SUB SURFACE 3,4.2080E-004,4.2148E-004
 Clear Turbid Sky Daylight Factors,07/21,BUILDING STORY 1 THERMALZONE,SUB SURFACE 3,3.8700E-004,3.8757E-004
 Intermediate Sky Daylight Factors,07/21,BUILDING STORY 1 THERMALZONE,SUB SURFACE 3,3.3298E-004,3.3335E-004
 Overcast Sky Daylight Factors,07/21,BUILDING STORY 1 THERMALZONE,SUB SURFACE 3,3.5160E-004,3.5187E-004
 Clear Sky Daylight Factors,07/21,BUILDING STORY 10 THERMALZONE,SUB SURFACE 38,3.8190E-002,1.4542E-002
 Clear Turbid Sky Daylight Factors,07/21,BUILDING STORY 10 THERMALZONE,SUB SURFACE 38,3.6048E-002,1.3148E-002
 Intermediate Sky Daylight Factors,07/21,BUILDING STORY 10 THERMALZONE,SUB SURFACE 38,2.8885E-002,9.0814E-003
 Overcast Sky Daylight Factors,07/21,BUILDING STORY 10 THERMALZONE,SUB SURFACE 38,2.3313E-002,6.8716E-003
 Clear Sky Daylight Factors,07/21,BUILDING STORY 10 THERMALZONE,SUB SURFACE 37,4.4862E-004,4.5146E-004
 Clear Turbid Sky Daylight Factors,07/21,BUILDING STORY 10 THERMALZONE,SUB SURFACE 37,3.9487E-004,3.9711E-004
 Intermediate Sky Daylight Factors,07/21,BUILDING STORY 10 THERMALZONE,SUB SURFACE 37,3.2191E-004,3.2310E-004
 Overcast Sky Daylight Factors,07/21,BUILDING STORY 10 THERMALZONE,SUB SURFACE 37,3.9354E-004,3.9473E-004
 Clear Sky Daylight Factors,07/21,BUILDING STORY 10 THERMALZONE,SUB SURFACE 39,3.1106E-004,3.1164E-004
 Clear Turbid Sky Daylight Factors,07/21,BUILDING STORY 10 THERMALZONE,SUB SURFACE 39,2.6438E-004,2.6481E-004
 Intermediate Sky Daylight Factors,07/21,BUILDING STORY 10 THERMALZONE,SUB SURFACE 39,2.0530E-004,2.0545E-004
 Overcast Sky Daylight Factors,07/21,BUILDING STORY 10 THERMALZONE,SUB SURFACE 39,3.2879E-004,3.2902E-004
 Clear Sky Daylight Factors,07/21,BUILDING STORY 10 THERMALZONE,SUB SURFACE 40,4.9363E-004,4.9665E-004
 Clear Turbid Sky Daylight Factors,07/21,BUILDING STORY 10 THERMALZONE,SUB SURFACE 40,4.4740E-004,4.4985E-004
 Intermediate Sky Daylight Factors,07/21,BUILDING STORY 10 THERMALZONE,SUB SURFACE 40,3.7187E-004,3.7331E-004
 Overcast Sky Daylight Factors,07/21,BUILDING STORY 10 THERMALZONE,SUB SURFACE 40,3.9366E-004,3.9486E-004
 Clear Sky Daylight Factors,07/21,BUILDING STORY 2 THERMALZONE,SUB SURFACE 7,3.0086E-004,3.0086E-004
 Clear Turbid Sky Daylight Factors,07/21,BUILDING STORY 2 THERMALZONE,SUB SURFACE 7,2.5676E-004,2.5676E-004
 Intermediate Sky Daylight Factors,07/21,BUILDING STORY 2 THERMALZONE,SUB SURFACE 7,2.0250E-004,2.0250E-004
 Overcast Sky Daylight Factors,07/21,BUILDING STORY 2 THERMALZONE,SUB SURFACE 7,3.2463E-004,3.2463E-004
 Clear Sky Daylight Factors,07/21,BUILDING STORY 2 THERMALZONE,SUB SURFACE 8,4.5487E-004,4.5555E-004
 Clear Turbid Sky Daylight Factors,07/21,BUILDING STORY 2 THERMALZONE,SUB SURFACE 8,4.1697E-004,4.1754E-004
 Intermediate Sky Daylight Factors,07/21,BUILDING STORY 2 THERMALZONE,SUB SURFACE 8,3.5647E-004,3.5684E-004
 Overcast Sky Daylight Factors,07/21,BUILDING STORY 2 THERMALZONE,SUB SURFACE 8,3.7755E-004,3.7781E-004
 Clear Sky Daylight Factors,07/21,BUILDING STORY 2 THERMALZONE,SUB SURFACE 5,0.0000,0.0000
 Clear Turbid Sky Daylight Factors,07/21,BUILDING STORY 2 THERMALZONE,SUB SURFACE 5,0.0000,0.0000
 Intermediate Sky Daylight Factors,07/21,BUILDING STORY 2 THERMALZONE,SUB SURFACE 5,0.0000,0.0000
 Overcast Sky Daylight Factors,07/21,BUILDING STORY 2 THERMALZONE,SUB SURFACE 5,0.0000,0.0000
 Clear Sky Daylight Factors,07/21,BUILDING STORY 2 THERMALZONE,SUB SURFACE 6,3.9946E-004,4.0197E-004
 Clear Turbid Sky Daylight Factors,07/21,BUILDING STORY 2 THERMALZONE,SUB SURFACE 6,3.5705E-004,3.5894E-004
 Intermediate Sky Daylight Factors,07/21,BUILDING STORY 2 THERMALZONE,SUB SURFACE 6,3.0483E-004,3.0556E-004
 Overcast Sky Daylight Factors,07/21,BUILDING STORY 2 THERMALZONE,SUB SURFACE 6,3.7280E-004,3.7383E-004
 Clear Sky Daylight Factors,07/21,BUILDING STORY 3 THERMALZONE,SUB SURFACE 10,0.0000,0.0000
 Clear Turbid Sky Daylight Factors,07/21,BUILDING STORY 3 THERMALZONE,SUB SURFACE 10,0.0000,0.0000
 Intermediate Sky Daylight Factors,07/21,BUILDING STORY 3 THERMALZONE,SUB SURFACE 10,0.0000,0.0000
 Overcast Sky Daylight Factors,07/21,BUILDING STORY 3 THERMALZONE,SUB SURFACE 10,0.0000,0.0000
 Clear Sky Daylight Factors,07/21,BUILDING STORY 3 THERMALZONE,SUB SURFACE 9,3.9946E-004,4.0197E-004
 Clear Turbid Sky Daylight Factors,07/21,BUILDING STORY 3 THERMALZONE,SUB SURFACE 9,3.5705E-004,3.5894E-004
 Intermediate Sky Daylight Factors,07/21,BUILDING STORY 3 THERMALZONE,SUB SURFACE 9,3.0483E-004,3.0556E-004
 Overcast Sky Daylight Factors,07/21,BUILDING STORY 3 THERMALZONE,SUB SURFACE 9,3.7280E-004,3.7383E-004
 Clear Sky Daylight Factors,07/21,BUILDING STORY 3 THERMALZONE,SUB SURFACE 12,3.0086E-004,3.0086E-004
 Clear Turbid Sky Daylight Factors,07/21,BUILDING STORY 3 THERMALZONE,SUB SURFACE 12,2.5676E-004,2.5676E-004
 Intermediate Sky Daylight Factors,07/21,BUILDING STORY 3 THERMALZONE,SUB SURFACE 12,2.0250E-004,2.0250E-004
 Overcast Sky Daylight Factors,07/21,BUILDING STORY 3 THERMALZONE,SUB SURFACE 12,3.2463E-004,3.2463E-004
 Clear Sky Daylight Factors,07/21,BUILDING STORY 3 THERMALZONE,SUB SURFACE 11,4.5487E-004,4.5555E-004
 Clear Turbid Sky Daylight Factors,07/21,BUILDING STORY 3 THERMALZONE,SUB SURFACE 11,4.1697E-004,4.1754E-004
 Intermediate Sky Daylight Factors,07/21,BUILDING STORY 3 THERMALZONE,SUB SURFACE 11,3.5647E-004,3.5684E-004
 Overcast Sky Daylight Factors,07/21,BUILDING STORY 3 THERMALZONE,SUB SURFACE 11,3.7755E-004,3.7781E-004
 Clear Sky Daylight Factors,07/21,BUILDING STORY 4 THERMALZONE,SUB SURFACE 15,0.0000,0.0000
 Clear Turbid Sky Daylight Factors,07/21,BUILDING STORY 4 THERMALZONE,SUB SURFACE 15,0.0000,0.0000
 Intermediate Sky Daylight Factors,07/21,BUILDING STORY 4 THERMALZONE,SUB SURFACE 15,0.0000,0.0000
 Overcast Sky Daylight Factors,07/21,BUILDING STORY 4 THERMALZONE,SUB SURFACE 15,0.0000,0.0000
 Clear Sky Daylight Factors,07/21,BUILDING STORY 4 THERMALZONE,SUB SURFACE 14,4.0163E-004,4.0197E-004
 Clear Turbid Sky Daylight Factors,07/21,BUILDING STORY 4 THERMALZONE,SUB SURFACE 14,3.5868E-004,3.5894E-004
 Intermediate Sky Daylight Factors,07/21,BUILDING STORY 4 THERMALZONE,SUB SURFACE 14,3.0546E-004,3.0556E-004
 Overcast Sky Daylight Factors,07/21,BUILDING STORY 4 THERMALZONE,SUB SURFACE 14,3.7369E-004,3.7383E-004
 Clear Sky Daylight Factors,07/21,BUILDING STORY 4 THERMALZONE,SUB SURFACE 13,3.0086E-004,3.0086E-004
 Clear Turbid Sky Daylight Factors,07/21,BUILDING STORY 4 THERMALZONE,SUB SURFACE 13,2.5676E-004,2.5676E-004
 Intermediate Sky Daylight Factors,07/21,BUILDING STORY 4 THERMALZONE,SUB SURFACE 13,2.0250E-004,2.0250E-004
 Overcast Sky Daylight Factors,07/21,BUILDING STORY 4 THERMALZONE,SUB SURFACE 13,3.2463E-004,3.2463E-004
 Clear Sky Daylight Factors,07/21,BUILDING STORY 4 THERMALZONE,SUB SURFACE 16,4.5487E-004,4.5555E-004
 Clear Turbid Sky Daylight Factors,07/21,BUILDING STORY 4 THERMALZONE,SUB SURFACE 16,4.1697E-004,4.1754E-004
 Intermediate Sky Daylight Factors,07/21,BUILDING STORY 4 THERMALZONE,SUB SURFACE 16,3.5647E-004,3.5684E-004
 Overcast Sky Daylight Factors,07/21,BUILDING STORY 4 THERMALZONE,SUB SURFACE 16,3.7755E-004,3.7781E-004
 Clear Sky Daylight Factors,07/21,BUILDING STORY 5 THERMALZONE,SUB SURFACE 17,0.0000,0.0000
 Clear Turbid Sky Daylight Factors,07/21,BUILDING STORY 5 THERMALZONE,SUB SURFACE 17,0.0000,0.0000
 Intermediate Sky Daylight Factors,07/21,BUILDING STORY 5 THERMALZONE,SUB SURFACE 17,0.0000,0.0000
 Overcast Sky Daylight Factors,07/21,BUILDING STORY 5 THERMALZONE,SUB SURFACE 17,0.0000,0.0000
 Clear Sky Daylight Factors,07/21,BUILDING STORY 5 THERMALZONE,SUB SURFACE 18,4.0163E-004,4.0197E-004
 Clear Turbid Sky Daylight Factors,07/21,BUILDING STORY 5 THERMALZONE,SUB SURFACE 18,3.5868E-004,3.5894E-004
 Intermediate Sky Daylight Factors,07/21,BUILDING STORY 5 THERMALZONE,SUB SURFACE 18,3.0546E-004,3.0556E-004
 Overcast Sky Daylight Factors,07/21,BUILDING STORY 5 THERMALZONE,SUB SURFACE 18,3.7369E-004,3.7383E-004
 Clear Sky Daylight Factors,07/21,BUILDING STORY 5 THERMALZONE,SUB SURFACE 19,3.0086E-004,3.0086E-004
 Clear Turbid Sky Daylight Factors,07/21,BUILDING STORY 5 THERMALZONE,SUB SURFACE 19,2.5676E-004,2.5676E-004
 Intermediate Sky Daylight Factors,07/21,BUILDING STORY 5 THERMALZONE,SUB SURFACE 19,2.0250E-004,2.0250E-004
 Overcast Sky Daylight Factors,07/21,BUILDING STORY 5 THERMALZONE,SUB SURFACE 19,3.2463E-004,3.2463E-004
 Clear Sky Daylight Factors,07/21,BUILDING STORY 5 THERMALZONE,SUB SURFACE 20,4.5487E-004,4.5555E-004
 Clear Turbid Sky Daylight Factors,07/21,BUILDING STORY 5 THERMALZONE,SUB SURFACE 20,4.1697E-004,4.1754E-004
 Intermediate Sky Daylight Factors,07/21,BUILDING STORY 5 THERMALZONE,SUB SURFACE 20,3.5647E-004,3.5684E-004
 Overcast Sky Daylight Factors,07/21,BUILDING STORY 5 THERMALZONE,SUB SURFACE 20,3.7755E-004,3.7781E-004
 Clear Sky Daylight Factors,07/21,BUILDING STORY 6 THERMALZONE,SUB SURFACE 21,4.7110E-009,0.0000
 Clear Turbid Sky Daylight Factors,07/21,BUILDING STORY 6 THERMALZONE,SUB SURFACE 21,3.7246E-009,0.0000
 Intermediate Sky Daylight Factors,07/21,BUILDING STORY 6 THERMALZONE,SUB SURFACE 21,1.9420E-009,0.0000
 Overcast Sky Daylight Factors,07/21,BUILDING STORY 6 THERMALZONE,SUB SURFACE 21,2.0311E-009,0.0000
 Clear Sky Daylight Factors,07/21,BUILDING STORY 6 THERMALZONE,SUB SURFACE 22,3.9811E-004,4.0197E-004
 Clear Turbid Sky Daylight Factors,07/21,BUILDING STORY 6 THERMALZONE,SUB SURFACE 22,3.5604E-004,3.5894E-004
 Intermediate Sky Daylight Factors,07/21,BUILDING STORY 6 THERMALZONE,SUB SURFACE 22,3.0446E-004,3.0556E-004
 Overcast Sky Daylight Factors,07/21,BUILDING STORY 6 THERMALZONE,SUB SURFACE 22,3.7225E-004,3.7383E-004
 Clear Sky Daylight Factors,07/21,BUILDING STORY 6 THERMALZONE,SUB SURFACE 24,3.0086E-004,3.0086E-004
 Clear Turbid Sky Daylight Factors,07/21,BUILDING STORY 6 THERMALZONE,SUB SURFACE 24,2.5676E-004,2.5676E-004
 Intermediate Sky Daylight Factors,07/21,BUILDING STORY 6 THERMALZONE,SUB SURFACE 24,2.0250E-004,2.0250E-004
 Overcast Sky Daylight Factors,07/21,BUILDING STORY 6 THERMALZONE,SUB SURFACE 24,3.2463E-004,3.2463E-004
 Clear Sky Daylight Factors,07/21,BUILDING STORY 6 THERMALZONE,SUB SURFACE 23,4.5487E-004,4.5555E-004
 Clear Turbid Sky Daylight Factors,07/21,BUILDING STORY 6 THERMALZONE,SUB SURFACE 23,4.1697E-004,4.1754E-004
 Intermediate Sky Daylight Factors,07/21,BUILDING STORY 6 THERMALZONE,SUB SURFACE 23,3.5647E-004,3.5684E-004
 Overcast Sky Daylight Factors,07/21,BUILDING STORY 6 THERMALZONE,SUB SURFACE 23,3.7755E-004,3.7781E-004
 Clear Sky Daylight Factors,07/21,BUILDING STORY 7 THERMALZONE,SUB SURFACE 25,4.7110E-009,0.0000
 Clear Turbid Sky Daylight Factors,07/21,BUILDING STORY 7 THERMALZONE,SUB SURFACE 25,3.7246E-009,0.0000
 Intermediate Sky Daylight Factors,07/21,BUILDING STORY 7 THERMALZONE,SUB SURFACE 25,1.9420E-009,0.0000
 Overcast Sky Daylight Factors,07/21,BUILDING STORY 7 THERMALZONE,SUB SURFACE 25,2.0311E-009,0.0000
 Clear Sky Daylight Factors,07/21,BUILDING STORY 7 THERMALZONE,SUB SURFACE 26,3.9811E-004,4.0197E-004
 Clear Turbid Sky Daylight Factors,07/21,BUILDING STORY 7 THERMALZONE,SUB SURFACE 26,3.5604E-004,3.5894E-004
 Intermediate Sky Daylight Factors,07/21,BUILDING STORY 7 THERMALZONE,SUB SURFACE 26,3.0446E-004,3.0556E-004
 Overcast Sky Daylight Factors,07/21,BUILDING STORY 7 THERMALZONE,SUB SURFACE 26,3.7225E-004,3.7383E-004
 Clear Sky Daylight Factors,07/21,BUILDING STORY 7 THERMALZONE,SUB SURFACE 28,3.0086E-004,3.0086E-004
 Clear Turbid Sky Daylight Factors,07/21,BUILDING STORY 7 THERMALZONE,SUB SURFACE 28,2.5676E-004,2.5676E-004
 Intermediate Sky Daylight Factors,07/21,BUILDING STORY 7 THERMALZONE,SUB SURFACE 28,2.0250E-004,2.0250E-004
 Overcast Sky Daylight Factors,07/21,BUILDING STORY 7 THERMALZONE,SUB SURFACE 28,3.2463E-004,3.2463E-004
 Clear Sky Daylight Factors,07/21,BUILDING STORY 7 THERMALZONE,SUB SURFACE 27,4.5487E-004,4.5555E-004
 Clear Turbid Sky Daylight Factors,07/21,BUILDING STORY 7 THERMALZONE,SUB SURFACE 27,4.1697E-004,4.1754E-004
 Intermediate Sky Daylight Factors,07/21,BUILDING STORY 7 THERMALZONE,SUB SURFACE 27,3.5647E-004,3.5684E-004
 Overcast Sky Daylight Factors,07/21,BUILDING STORY 7 THERMALZONE,SUB SURFACE 27,3.7755E-004,3.7781E-004
 Clear Sky Daylight Factors,07/21,BUILDING STORY 8 THERMALZONE,SUB SURFACE 32,4.7110E-009,0.0000
 Clear Turbid Sky Daylight Factors,07/21,BUILDING STORY 8 THERMALZONE,SUB SURFACE 32,3.7246E-009,0.0000
 Intermediate Sky Daylight Factors,07/21,BUILDING STORY 8 THERMALZONE,SUB SURFACE 32,1.9420E-009,0.0000
 Overcast Sky Daylight Factors,07/21,BUILDING STORY 8 THERMALZONE,SUB SURFACE 32,2.0311E-009,0.0000
 Clear Sky Daylight Factors,07/21,BUILDING STORY 8 THERMALZONE,SUB SURFACE 31,3.9811E-004,4.0197E-004
 Clear Turbid Sky Daylight Factors,07/21,BUILDING STORY 8 THERMALZONE,SUB SURFACE 31,3.5604E-004,3.5894E-004
 Intermediate Sky Daylight Factors,07/21,BUILDING STORY 8 THERMALZONE,SUB SURFACE 31,3.0446E-004,3.0556E-004
 Overcast Sky Daylight Factors,07/21,BUILDING STORY 8 THERMALZONE,SUB SURFACE 31,3.7225E-004,3.7383E-004
 Clear Sky Daylight Factors,07/21,BUILDING STORY 8 THERMALZONE,SUB SURFACE 30,3.0086E-004,3.0086E-004
 Clear Turbid Sky Daylight Factors,07/21,BUILDING STORY 8 THERMALZONE,SUB SURFACE 30,2.5676E-004,2.5676E-004
 Intermediate Sky Daylight Factors,07/21,BUILDING STORY 8 THERMALZONE,SUB SURFACE 30,2.0250E-004,2.0250E-004
 Overcast Sky Daylight Factors,07/21,BUILDING STORY 8 THERMALZONE,SUB SURFACE 30,3.2463E-004,3.2463E-004
 Clear Sky Daylight Factors,07/21,BUILDING STORY 8 THERMALZONE,SUB SURFACE 29,4.5487E-004,4.5555E-004
 Clear Turbid Sky Daylight Factors,07/21,BUILDING STORY 8 THERMALZONE,SUB SURFACE 29,4.1697E-004,4.1754E-004
 Intermediate Sky Daylight Factors,07/21,BUILDING STORY 8 THERMALZONE,SUB SURFACE 29,3.5647E-004,3.5684E-004
 Overcast Sky Daylight Factors,07/21,BUILDING STORY 8 THERMALZONE,SUB SURFACE 29,3.7755E-004,3.7781E-004
 Clear Sky Daylight Factors,07/21,BUILDING STORY 9 THERMALZONE,SUB SURFACE 36,3.8190E-002,1.4542E-002
 Clear Turbid Sky Daylight Factors,07/21,BUILDING STORY 9 THERMALZONE,SUB SURFACE 36,3.6048E-002,1.3148E-002
 Intermediate Sky Daylight Factors,07/21,BUILDING STORY 9 THERMALZONE,SUB SURFACE 36,2.8885E-002,9.0814E-003
 Overcast Sky Daylight Factors,07/21,BUILDING STORY 9 THERMALZONE,SUB SURFACE 36,2.3313E-002,6.8716E-003
 Clear Sky Daylight Factors,07/21,BUILDING STORY 9 THERMALZONE,SUB SURFACE 34,4.4862E-004,4.5146E-004
 Clear Turbid Sky Daylight Factors,07/21,BUILDING STORY 9 THERMALZONE,SUB SURFACE 34,3.9487E-004,3.9711E-004
 Intermediate Sky Daylight Factors,07/21,BUILDING STORY 9 THERMALZONE,SUB SURFACE 34,3.2191E-004,3.2310E-004
 Overcast Sky Daylight Factors,07/21,BUILDING STORY 9 THERMALZONE,SUB SURFACE 34,3.9354E-004,3.9473E-004
 Clear Sky Daylight Factors,07/21,BUILDING STORY 9 THERMALZONE,SUB SURFACE 33,3.1106E-004,3.1164E-004
 Clear Turbid Sky Daylight Factors,07/21,BUILDING STORY 9 THERMALZONE,SUB SURFACE 33,2.6438E-004,2.6481E-004
 Intermediate Sky Daylight Factors,07/21,BUILDING STORY 9 THERMALZONE,SUB SURFACE 33,2.0530E-004,2.0545E-004
 Overcast Sky Daylight Factors,07/21,BUILDING STORY 9 THERMALZONE,SUB SURFACE 33,3.2879E-004,3.2902E-004
 Clear Sky Daylight Factors,07/21,BUILDING STORY 9 THERMALZONE,SUB SURFACE 35,4.9363E-004,4.9665E-004
 Clear Turbid Sky Daylight Factors,07/21,BUILDING STORY 9 THERMALZONE,SUB SURFACE 35,4.4740E-004,4.4985E-004
 Intermediate Sky Daylight Factors,07/21,BUILDING STORY 9 THERMALZONE,SUB SURFACE 35,3.7187E-004,3.7331E-004
 Overcast Sky Daylight Factors,07/21,BUILDING STORY 9 THERMALZONE,SUB SURFACE 35,3.9366E-004,3.9486E-004
! <Zone Sizing Information>, Zone Name, Load Type, Calc Des Load {W}, User Des Load {W}, Calc Des Air Flow Rate {m3/s}, User Des Air Flow Rate {m3/s}, Design Day Name, Date/Time of Peak, Temperature at Peak {C}, Humidity Ratio at Peak {kgWater/kgDryAir}, Floor Area {m2}, # Occupants, Calc Outdoor Air Flow Rate {m3/s}, Calc DOAS Heat Addition Rate {W}
 Zone Sizing Information, BUILDING STORY 1 THERMALZONE, Cooling, 294993.20696, 339242.18801, 21.97982, 25.27680, BUFFALO NIAGARA INTL AP ANN CLG .4% CONDNS DB=>MWB 1, 7/21 17:00:00, 28.99800, 1.33455E-002, 2935.68221, 996.36157, 4.91475, 0.00000
 Zone Sizing Information, BUILDING STORY 1 THERMALZONE, Heating, 27233.49173, 34041.86466, 0.78443, 4.91475, BUFFALO NIAGARA INTL AP ANN HTG 99.6% CONDNS DB 1, 1/21 24:00:00, -16.30000, 9.24091E-004, 2935.68221, 996.36157, 4.91475, 0.00000
 Zone Sizing Information, BUILDING STORY 10 THERMALZONE, Cooling, 74528.56711, 85707.85218, 8.62395, 9.91754, BUFFALO NIAGARA INTL AP ANN CLG .4% CONDNS DB=>MWB 1, 7/21 15:00:00, 30.30000, 1.33455E-002, 2935.68221, 79.24728, 1.08180, 0.00000
 Zone Sizing Information, BUILDING STORY 10 THERMALZONE, Heating, 62979.19483, 78723.99354, 1.82073, 2.27591, BUFFALO NIAGARA INTL AP ANN HTG 99.6% CONDNS DB 1, 1/21 24:00:00, -16.30000, 9.24091E-004, 2935.68221, 79.24728, 1.08180, 0.00000
 Zone Sizing Information, BUILDING STORY 2 THERMALZONE, Cooling, 139285.61259, 160178.45448, 10.37143, 11.92715, BUFFALO NIAGARA INTL AP ANN CLG .4% CONDNS DB=>MWB 1, 7/21 17:00:00, 28.99800, 1.33455E-002, 2935.68221, 889.26721, 4.03613, 0.00000
 Zone Sizing Information, BUILDING STORY 2 THERMALZONE, Heating, 31844.83612, 39806.04515, 0.91723, 4.03613, BUFFALO NIAGARA INTL AP ANN HTG 99.6% CONDNS DB 1, 1/21 24:00:00, -16.30000, 9.24091E-004, 2935.68221, 889.26721, 4.03613, 0.00000
 Zone Sizing Information, BUILDING STORY 3 THERMALZONE, Cooling, 71430.11257, 82144.62945, 8.26477, 9.50449, BUFFALO NIAGARA INTL AP ANN CLG .4% CONDNS DB=>MWB 1, 7/21 17:00:00, 28.99800, 1.33455E-002, 2935.68221, 79.24728, 1.08180, 0.00000
 Zone Sizing Information, BUILDING STORY 3 THERMALZONE, Heating, 33519.02637, 41898.78296, 0.96911, 1.21139, BUFFALO NIAGARA INTL AP ANN HTG 99.6% CONDNS DB 1, 1/21 24:00:00, -16.30000, 9.24091E-004, 2935.68221, 79.24728, 1.08180, 0.00000
 Zone Sizing Information, BUILDING STORY 4 THERMALZONE, Cooling, 207619.27344, 238762.16445, 15.47280, 17.79372, BUFFALO NIAGARA INTL AP ANN CLG .4% CONDNS DB=>MWB 1, 7/21 17:00:00, 28.99800, 1.33455E-002, 2935.68221, 1625.28801, 5.24919, 0.00000
 Zone Sizing Information, BUILDING STORY 4 THERMALZONE, Heating, 34594.21916, 43242.77395, 0.99639, 5.24919, BUFFALO NIAGARA INTL AP ANN HTG 99.6% CONDNS DB 1, 1/21 24:00:00, -16.30000, 9.24091E-004, 2935.68221, 1625.28801, 5.24919, 0.00000
 Zone Sizing Information, BUILDING STORY 5 THERMALZONE, Cooling, 71219.25656, 81902.14505, 8.24051, 9.47659, BUFFALO NIAGARA INTL AP ANN CLG .4% CONDNS DB=>MWB 1, 7/21 17:00:00, 28.99800, 1.33455E-002, 2935.68221, 79.24728, 1.08180, 0.00000
 Zone Sizing Information, BUILDING STORY 5 THERMALZONE, Heating, 35616.65819, 44520.82273, 1.02974, 1.28717, BUFFALO NIAGARA INTL AP ANN HTG 99.6% CONDNS DB 1, 1/21 24:00:00, -16.30000, 9.24091E-004, 2935.68221, 79.24728, 1.08180, 0.00000
 Zone Sizing Information, BUILDING STORY 6 THERMALZONE, Cooling, 71134.77392, 81804.99001, 8.23079, 9.46541, BUFFALO NIAGARA INTL AP ANN CLG .4% CONDNS DB=>MWB 1, 7/21 17:00:00, 28.99800, 1.33455E-002, 2935.68221, 79.24728, 1.08180, 0.00000
 Zone Sizing Information, BUILDING STORY 6 THERMALZONE, Heating, 36441.43981, 45551.79976, 1.05358, 1.31697, BUFFALO NIAGARA INTL AP ANN HTG 99.6% CONDNS DB 1, 1/21 24:00:00, -16.30000, 9.24091E-004, 2935.68221, 79.24728, 1.08180, 0.00000
 Zone Sizing Information, BUILDING STORY 7 THERMALZONE, Cooling, 71763.24379, 82527.73036, 8.30355, 9.54909, BUFFALO NIAGARA INTL AP ANN CLG .4% CONDNS DB=>MWB 1, 7/21 17:00:00, 28.99800, 1.33455E-002, 2935.68221, 79.24728, 1.08180, 0.00000
 Zone Sizing Information, BUILDING STORY 7 THERMALZONE, Heating, 37236.33894, 46545.42368, 1.07655, 1.34569, BUFFALO NIAGARA INTL AP ANN HTG 99.6% CONDNS DB 1, 1/21 24:00:00, -16.30000, 9.24091E-004, 2935.68221, 79.24728, 1.08180, 0.00000
[...]
 Component Sizing Information, Coil:Cooling:DX:TwoSpeed, 1 ZONE PVAV 2SPD DX CLG COIL, User-Specified Low Speed Gross Rated Sensible Heat Ratio, 0.69000
! <VAV DX Cooling Coil Standard Rating Information>, DX Coil Type, DX Coil Name, Fan Type, Fan Name, Standard Net Cooling Capacity {W}, Standard Net Cooling Capacity {Btu/h}, IEER {Btu/W-h}, COP 100% Capacity {W/W}, COP 75% Capacity {W/W}, COP 50% Capacity {W/W}, COP 25% Capacity {W/W}, EER 100% Capacity {Btu/W-h}, EER 75% Capacity {Btu/W-h}, EER 50% Capacity {Btu/W-h}, EER 25% Capacity {Btu/W-h}, Supply Air Flow 100% {kg/s}, Supply Air Flow 75% {kg/s},Supply Air Flow 50% {kg/s},Supply Air Flow 25% {kg/s}
 VAV DX Cooling Coil Standard Rating Information, Coil:Cooling:DX:TwoSpeed,1 ZONE PVAV 2SPD DX CLG COIL,N/A,N/A,529793.02,1807728.81,10.10,2.64,2.87,3.09,3.20,9.00,9.80,10.54,10.90,28.4983,21.5974,13.7389,6.0464,
 Component Sizing Information, Coil:Heating:Water, 1 ZONE PVAV MAIN HTG COIL, Design Size Rated Capacity [W], 142707.33283
 Component Sizing Information, Coil:Heating:Water, 1 ZONE PVAV MAIN HTG COIL, Design Size Maximum Water Flow Rate [m3/s], 3.12141E-003
 Component Sizing Information, Coil:Heating:Water, 1 ZONE PVAV MAIN HTG COIL, Design Size U-Factor Times Area Value [W/K], 2060.53185
Water Heating Coil Capacity Information,Coil:Heating:Water,1 ZONE PVAV MAIN HTG COIL,109847.95
 Component Sizing Information, Fan:VariableVolume, 1 ZONE PVAV FAN, Design Size Maximum Flow Rate [m3/s], 25.27680
 Component Sizing Information, Controller:WaterCoil, 1 ZONE PVAV MAIN HTG COIL CONTROLLER, Maximum Actuated Flow [m3/s], 3.12141E-003
 Component Sizing Information, Controller:OutdoorAir, CONTROLLER OUTDOOR AIR 2, Maximum Outdoor Air Flow Rate [m3/s], 11.92715
 Component Sizing Information, Controller:OutdoorAir, CONTROLLER OUTDOOR AIR 2, Minimum Outdoor Air Flow Rate [m3/s], 4.03613
 Component Sizing Information, Coil:Cooling:DX:TwoSpeed, 1 ZONE PVAV 1 2SPD DX CLG COIL, Design Size High Speed Rated Air Flow Rate [m3/s], 11.92715
 Component Sizing Information, Coil:Cooling:DX:TwoSpeed, 1 ZONE PVAV 1 2SPD DX CLG COIL, Design Size High Speed Gross Rated Total Cooling Capacity [W], 289825.19608
 Component Sizing Information, Coil:Cooling:DX:TwoSpeed, 1 ZONE PVAV 1 2SPD DX CLG COIL, Design Size High Speed Rated Sensible Heat Ratio, 0.70446
 Component Sizing Information, Coil:Cooling:DX:TwoSpeed, 1 ZONE PVAV 1 2SPD DX CLG COIL, Design Size Low Speed Rated Air Flow Rate [m3/s], 3.97532
 Component Sizing Information, Coil:Cooling:DX:TwoSpeed, 1 ZONE PVAV 1 2SPD DX CLG COIL, Design Size Low Speed Gross Rated Total Cooling Capacity [W], 96598.73785
 Component Sizing Information, Coil:Cooling:DX:TwoSpeed, 1 ZONE PVAV 1 2SPD DX CLG COIL, User-Specified Low Speed Gross Rated Sensible Heat Ratio, 0.69000
 VAV DX Cooling Coil Standard Rating Information, Coil:Cooling:DX:TwoSpeed,1 ZONE PVAV 1 2SPD DX CLG COIL,N/A,N/A,281092.75,959128.28,10.23,2.68,2.92,3.11,3.22,9.13,9.96,10.63,11.00,13.4472,10.4955,6.9035,2.9979,
 Component Sizing Information, Coil:Heating:Water, 1 ZONE PVAV 1 MAIN HTG COIL, Design Size Rated Capacity [W], 122733.86177
 Component Sizing Information, Coil:Heating:Water, 1 ZONE PVAV 1 MAIN HTG COIL, Design Size Maximum Water Flow Rate [m3/s], 2.68454E-003
 Component Sizing Information, Coil:Heating:Water, 1 ZONE PVAV 1 MAIN HTG COIL, Design Size U-Factor Times Area Value [W/K], 1612.52675
Water Heating Coil Capacity Information,Coil:Heating:Water,1 ZONE PVAV 1 MAIN HTG COIL,81939.08
 Component Sizing Information, Fan:VariableVolume, 1 ZONE PVAV 1 FAN, Design Size Maximum Flow Rate [m3/s], 11.92715
 Component Sizing Information, Controller:WaterCoil, 1 ZONE PVAV 1 MAIN HTG COIL CONTROLLER, Maximum Actuated Flow [m3/s], 2.68454E-003
 Component Sizing Information, Controller:OutdoorAir, CONTROLLER OUTDOOR AIR 3, Maximum Outdoor Air Flow Rate [m3/s], 17.79372
 Component Sizing Information, Controller:OutdoorAir, CONTROLLER OUTDOOR AIR 3, Minimum Outdoor Air Flow Rate [m3/s], 5.24919
 Component Sizing Information, Coil:Cooling:DX:TwoSpeed, 1 ZONE PVAV 2 2SPD DX CLG COIL, Design Size High Speed Rated Air Flow Rate [m3/s], 17.79372
 Component Sizing Information, Coil:Cooling:DX:TwoSpeed, 1 ZONE PVAV 2 2SPD DX CLG COIL, Design Size High Speed Gross Rated Total Cooling Capacity [W], 430524.35158
 Component Sizing Information, Coil:Cooling:DX:TwoSpeed, 1 ZONE PVAV 2 2SPD DX CLG COIL, Design Size High Speed Rated Sensible Heat Ratio, 0.70654
 Component Sizing Information, Coil:Cooling:DX:TwoSpeed, 1 ZONE PVAV 2 2SPD DX CLG COIL, Design Size Low Speed Rated Air Flow Rate [m3/s], 5.93065
 Component Sizing Information, Coil:Cooling:DX:TwoSpeed, 1 ZONE PVAV 2 2SPD DX CLG COIL, Design Size Low Speed Gross Rated Total Cooling Capacity [W], 143493.76638
 Component Sizing Information, Coil:Cooling:DX:TwoSpeed, 1 ZONE PVAV 2 2SPD DX CLG COIL, User-Specified Low Speed Gross Rated Sensible Heat Ratio, 0.69000
 VAV DX Cooling Coil Standard Rating Information, Coil:Cooling:DX:TwoSpeed,1 ZONE PVAV 2 2SPD DX CLG COIL,N/A,N/A,417493.55,1424547.13,10.23,2.67,2.92,3.11,3.22,9.12,9.95,10.63,11.00,20.0615,15.6326,10.2604,4.4590,
 Component Sizing Information, Coil:Heating:Water, 1 ZONE PVAV 2 MAIN HTG COIL, Design Size Rated Capacity [W], 179190.49365
 Component Sizing Information, Coil:Heating:Water, 1 ZONE PVAV 2 MAIN HTG COIL, Design Size Maximum Water Flow Rate [m3/s], 3.91941E-003
 Component Sizing Information, Coil:Heating:Water, 1 ZONE PVAV 2 MAIN HTG COIL, Design Size U-Factor Times Area Value [W/K], 2363.71729
Water Heating Coil Capacity Information,Coil:Heating:Water,1 ZONE PVAV 2 MAIN HTG COIL,120383.96
 Component Sizing Information, Fan:VariableVolume, 1 ZONE PVAV 2 FAN, Design Size Maximum Flow Rate [m3/s], 17.79372
 Component Sizing Information, Controller:WaterCoil, 1 ZONE PVAV 2 MAIN HTG COIL CONTROLLER, Maximum Actuated Flow [m3/s], 3.91941E-003
Water Heater Information,WaterHeater:Mixed,6.0GAL ELECTRICITY BOOSTER WATER HEATER - 50KBTU/HR,2.2712E-002,14775.4,33.496,0.9509
Water Heater Information,WaterHeater:Mixed,263GAL NATURALGAS WATER HEATER - 263KBTU/HR,0.9939,76955.3,0.670,0.5792
Water Heater Information,WaterHeater:Mixed,517GAL ELECTRICITY WATER HEATER - 517KBTU/HR,1.9579,151586.6,0.443,1.3302
Water Heater Information,WaterHeater:Mixed,392GAL ELECTRICITY WATER HEATER - 392KBTU/HR,1.4854,115008.0,0.582,1.1639
 Component Sizing Information, PlantLoop, LARGEHOTEL KITCHEN - 90.1-2013 SERVICE WATER BOOSTER LOOP, Maximum Loop Flow Rate [m3/s], 2.62959E-004
 Component Sizing Information, PlantLoop, LARGEHOTEL KITCHEN - 90.1-2013 SERVICE WATER BOOSTER LOOP, Plant Loop Volume [m3], 3.15550E-002
 Component Sizing Information, Pump:VariableSpeed, BOOSTER WATER LOOP PUMP, Design Flow Rate [m3/s], 2.62959E-004
 Component Sizing Information, HeatExchanger:FluidToFluid, HX FOR BOOSTER WATER HEATING, Loop Supply Side Design Fluid Flow Rate [m3/s], 2.62959E-004
 Component Sizing Information, HeatExchanger:FluidToFluid, HX FOR BOOSTER WATER HEATING, Loop Demand Side Design Fluid Flow Rate [m3/s], 2.62959E-004
 Component Sizing Information, HeatExchanger:FluidToFluid, HX FOR BOOSTER WATER HEATING, Heat Exchanger U-Factor Times Area Value [W/C], 320.44911
 Component Sizing Information, HeatExchanger:FluidToFluid, HX FOR BOOSTER WATER HEATING, Loop-to-loop Temperature Difference Used to Size Heat Exchanger U-Factor Times Area Value [C], 17.22222
 Component Sizing Information, WaterHeater:Mixed, 6.0GAL ELECTRICITY BOOSTER WATER HEATER - 50KBTU/HR, Use Side Design Flow Rate [m3/s], 2.62959E-004
 Component Sizing Information, PlantComponent:TemperatureSource, MAINS WATER MAKEUP FOR SWH BOOSTER, Design Size Design Fluid Flow Rate [m3/s], 1.49010E-003
 Component Sizing Information, PlantLoop, HOT WATER LOOP, Maximum Loop Flow Rate [m3/s], 8.01417E-002
 Component Sizing Information, PlantLoop, HOT WATER LOOP, Plant Loop Volume [m3], 9.61701
 Component Sizing Information, Pump:VariableSpeed, HOT WATER LOOP PUMP, Design Flow Rate [m3/s], 8.01417E-002
 Component Sizing Information, Pump:VariableSpeed, HOT WATER LOOP PUMP, Design Power Consumption [W], 20474.26776
 Component Sizing Information, Boiler:HotWater, BOILER, Design Size Nominal Capacity [W], 3663982.78815
 Component Sizing Information, Boiler:HotWater, BOILER, Design Size Design Water Flow Rate [m3/s], 8.01417E-002
 Component Sizing Information, PlantLoop, LARGEHOTEL KITCHEN - 90.1-2013 SERVICE WATER LOOP, Maximum Loop Flow Rate [m3/s], 1.92836E-003
 Component Sizing Information, PlantLoop, LARGEHOTEL KITCHEN - 90.1-2013 SERVICE WATER LOOP, Plant Loop Volume [m3], 0.23140
 Component Sizing Information, Pump:VariableSpeed, LARGEHOTEL KITCHEN - 90.1-2013 SERVICE WATER LOOP WATER MAINS PRESSURE DRIVEN, Design Flow Rate [m3/s], 1.92836E-003
 Component Sizing Information, Pump:VariableSpeed, LARGEHOTEL KITCHEN - 90.1-2013 SERVICE WATER LOOP WATER MAINS PRESSURE DRIVEN, Design Power Consumption [W], 2.47226E-006
 Component Sizing Information, WaterHeater:Mixed, 263GAL NATURALGAS WATER HEATER - 263KBTU/HR, Use Side Design Flow Rate [m3/s], 1.92836E-003
 Component Sizing Information, PlantLoop, LARGEHOTEL LAUNDRY - 90.1-2013 SERVICE WATER LOOP, Maximum Loop Flow Rate [m3/s], 5.17976E-004
 Component Sizing Information, PlantLoop, LARGEHOTEL LAUNDRY - 90.1-2013 SERVICE WATER LOOP, Plant Loop Volume [m3], 6.21571E-002
 Component Sizing Information, Pump:VariableSpeed, LARGEHOTEL LAUNDRY - 90.1-2013 SERVICE WATER LOOP WATER MAINS PRESSURE DRIVEN, Design Flow Rate [m3/s], 5.17976E-004
 Component Sizing Information, Pump:VariableSpeed, LARGEHOTEL LAUNDRY - 90.1-2013 SERVICE WATER LOOP WATER MAINS PRESSURE DRIVEN, Design Power Consumption [W], 6.64071E-007
 Component Sizing Information, WaterHeater:Mixed, 517GAL ELECTRICITY WATER HEATER - 517KBTU/HR, Use Side Design Flow Rate [m3/s], 5.17976E-004
 Component Sizing Information, PlantLoop, LARGEHOTEL SHARED SERVICE WATER LOOP, Maximum Loop Flow Rate [m3/s], 4.91232E-004
 Component Sizing Information, PlantLoop, LARGEHOTEL SHARED SERVICE WATER LOOP, Plant Loop Volume [m3], 5.89478E-002
 Component Sizing Information, Pump:ConstantSpeed, LARGEHOTEL SHARED SERVICE WATER LOOP CIRCULATOR PUMP, Design Flow Rate [m3/s], 4.91232E-004
 Component Sizing Information, Pump:ConstantSpeed, LARGEHOTEL SHARED SERVICE WATER LOOP CIRCULATOR PUMP, Design Power Consumption [W], 62.74892
 Component Sizing Information, WaterHeater:Mixed, 392GAL ELECTRICITY WATER HEATER - 392KBTU/HR, Use Side Design Flow Rate [m3/s], 4.91232E-004
! <Environment>,Environment Name,Environment Type, Start Date, End Date, Start DayOfWeek, Duration {#days}, Source:Start DayOfWeek,  Use Daylight Saving, Use Holidays, Apply Weekend Holiday Rule,  Use Rain Values, Use Snow Values
! <Environment:Special Days>, Special Day Name, Special Day Type, Source, Start Date, Duration {#days}
! <Environment:Daylight Saving>, Daylight Saving Indicator, Source, Start Date, End Date
! <Environment:WarmupDays>, NumberofWarmupDays
Environment,BUFFALO NIAGARA INTL AP ANN CLG .4% CONDNS DB=>MWB 1,SizingPeriod:DesignDay,07/21,07/21,SummerDesignDay,1,N/A,N/A,N/A,N/A,N/A,N/A
Environment:Daylight Saving,No,SizingPeriod:DesignDay
! <Environment:Design Day Data>, Max Dry-Bulb Temp {C}, Temp Range {dC}, Temp Range Ind Type, Hum Ind Value at Max Temp, Hum Ind Type,Pressure {Pa}, Wind Direction {deg CW from N}, Wind Speed {m/s}, Clearness, Rain, Snow
! <Environment:Design Day Misc>,DayOfYear,ASHRAE A Coeff,ASHRAE B Coeff,ASHRAE C Coeff,Solar Constant-Annual Variation,Eq of Time {minutes}, Solar Declination Angle {deg}, Solar Model
Environment:Design Day Data,30.30,9.30,DefaultMultipliers,98769,240,5.7,0.00,No,No
Environment:Design Day Misc,202,1084.4,0.2082,0.1365,1.0,-6.23,20.6,ASHRAETau
Environment:WarmupDays,  6
! <Tabular Report>,Style,Unit Conversion
Tabular Report,HTML,None
! <Warmup Convergence Information>,Zone Name,Environment Type/Name,Average Warmup Temperature Difference {deltaC},Std Dev Warmup Temperature Difference {deltaC},Max Temperature Pass/Fail Convergence,Min Temperature Pass/Fail Convergence,Average Warmup Load Difference {W},Std Dev Warmup Load Difference {W},Heating Load Pass/Fail Convergence,Cooling Load Pass/Fail Convergence
 Warmup Convergence Information,BUILDING STORY 1 THERMALZONE,SizingPeriod: BUFFALO NIAGARA INTL AP ANN CLG .4% CONDNS DB=>MWB 1,4.7468635242E-005,4.3525681375E-005,Pass,Pass,6.6140918499E-003,6.6872958746E-003,Pass,Pass
 Warmup Convergence Information,BUILDING STORY 10 THERMALZONE,SizingPeriod: BUFFALO NIAGARA INTL AP ANN CLG .4% CONDNS DB=>MWB 1,7.1249741719E-005,7.3413246094E-005,Pass,Pass,3.4317601413E-002,2.4132624643E-002,Pass,Pass
 Warmup Convergence Information,BUILDING STORY 2 THERMALZONE,SizingPeriod: BUFFALO NIAGARA INTL AP ANN CLG .4% CONDNS DB=>MWB 1,7.7320893334E-005,6.0087531685E-005,Pass,Pass,1.4226423325E-002,1.2888915832E-002,Pass,Pass
 Warmup Convergence Information,BUILDING STORY 3 THERMALZONE,SizingPeriod: BUFFALO NIAGARA INTL AP ANN CLG .4% CONDNS DB=>MWB 1,8.7921873407E-005,8.0546828173E-005,Pass,Pass,2.9257676875E-002,2.5979143338E-002,Pass,Pass
 Warmup Convergence Information,BUILDING STORY 4 THERMALZONE,SizingPeriod: BUFFALO NIAGARA INTL AP ANN CLG .4% CONDNS DB=>MWB 1,7.8588316952E-005,5.8506673346E-005,Pass,Pass,9.7556017897E-003,8.7102446452E-003,Pass,Pass
 Warmup Convergence Information,BUILDING STORY 5 THERMALZONE,SizingPeriod: BUFFALO NIAGARA INTL AP ANN CLG .4% CONDNS DB=>MWB 1,9.0461098047E-005,8.5319901279E-005,Pass,Pass,2.8652163358E-002,2.7226968294E-002,Pass,Pass
 Warmup Convergence Information,BUILDING STORY 6 THERMALZONE,SizingPeriod: BUFFALO NIAGARA INTL AP ANN CLG .4% CONDNS DB=>MWB 1,9.0421739215E-005,8.6268483344E-005,Pass,Pass,2.8398118360E-002,2.7215544498E-002,Pass,Pass
 Warmup Convergence Information,BUILDING STORY 7 THERMALZONE,SizingPeriod: BUFFALO NIAGARA INTL AP ANN CLG .4% CONDNS DB=>MWB 1,9.0982464194E-005,8.1735192553E-005,Pass,Pass,3.0000770117E-002,2.5828401255E-002,Pass,Pass
 Warmup Convergence Information,BUILDING STORY 8 THERMALZONE,SizingPeriod: BUFFALO NIAGARA INTL AP ANN CLG .4% CONDNS DB=>MWB 1,1.7157108659E-004,1.7759627837E-004,Pass,Pass,5.1440674447E-002,3.6472312682E-002,Pass,Pass
 Warmup Convergence Information,BUILDING STORY 9 THERMALZONE,SizingPeriod: BUFFALO NIAGARA INTL AP ANN CLG .4% CONDNS DB=>MWB 1,7.3623771697E-005,6.5587850538E-005,Pass,Pass,2.2972077801E-002,1.6960594643E-002,Pass,Pass
Environment,BUFFALO NIAGARA INTL AP ANN CLG .4% CONDNS WB=>MDB 1,SizingPeriod:DesignDay,07/21,07/21,SummerDesignDay,1,N/A,N/A,N/A,N/A,N/A,N/A
Environment:Daylight Saving,No,SizingPeriod:DesignDay
Environment:Design Day Data,27.80,9.30,DefaultMultipliers,98769,240,5.7,0.00,No,No
Environment:Design Day Misc,202,1084.4,0.2082,0.1365,1.0,-6.23,20.6,ASHRAETau
Environment:WarmupDays,  6
 Warmup Convergence Information,BUILDING STORY 1 THERMALZONE,SizingPeriod: BUFFALO NIAGARA INTL AP ANN CLG .4% CONDNS WB=>MDB 1,9.4842691099E-005,8.9800866276E-005,Pass,Pass,6.6262937088E-003,6.6857168507E-003,Pass,Pass
 Warmup Convergence Information,BUILDING STORY 10 THERMALZONE,SizingPeriod: BUFFALO NIAGARA INTL AP ANN CLG .4% CONDNS WB=>MDB 1,1.1598365298E-004,1.0130000501E-004,Pass,Pass,3.6370422189E-002,2.5716185446E-002,Pass,Pass
 Warmup Convergence Information,BUILDING STORY 2 THERMALZONE,SizingPeriod: BUFFALO NIAGARA INTL AP ANN CLG .4% CONDNS WB=>MDB 1,6.9847568386E-005,6.5212353878E-005,Pass,Pass,1.4356129844E-002,1.2940988355E-002,Pass,Pass
 Warmup Convergence Information,BUILDING STORY 3 THERMALZONE,SizingPeriod: BUFFALO NIAGARA INTL AP ANN CLG .4% CONDNS WB=>MDB 1,1.1093616727E-004,9.1251334935E-005,Pass,Pass,3.0044496272E-002,2.6612577289E-002,Pass,Pass
 Warmup Convergence Information,BUILDING STORY 4 THERMALZONE,SizingPeriod: BUFFALO NIAGARA INTL AP ANN CLG .4% CONDNS WB=>MDB 1,6.8251991586E-005,6.3983373011E-005,Pass,Pass,9.7975358090E-003,8.7362898467E-003,Pass,Pass
 Warmup Convergence Information,BUILDING STORY 5 THERMALZONE,SizingPeriod: BUFFALO NIAGARA INTL AP ANN CLG .4% CONDNS WB=>MDB 1,1.1315879732E-004,9.3173115709E-005,Pass,Pass,2.9492149488E-002,2.7987647350E-002,Pass,Pass
 Warmup Convergence Information,BUILDING STORY 6 THERMALZONE,SizingPeriod: BUFFALO NIAGARA INTL AP ANN CLG .4% CONDNS WB=>MDB 1,1.1486672704E-004,9.3416849523E-005,Pass,Pass,2.9256858666E-002,2.8005167131E-002,Pass,Pass
 Warmup Convergence Information,BUILDING STORY 7 THERMALZONE,SizingPeriod: BUFFALO NIAGARA INTL AP ANN CLG .4% CONDNS WB=>MDB 1,1.1145967791E-004,9.1852554423E-005,Pass,Pass,3.0953482398E-002,2.6578701140E-002,Pass,Pass
 Warmup Convergence Information,BUILDING STORY 8 THERMALZONE,SizingPeriod: BUFFALO NIAGARA INTL AP ANN CLG .4% CONDNS WB=>MDB 1,2.9307267058E-004,2.4766160144E-004,Pass,Pass,5.7570540041E-002,4.0404659611E-002,Pass,Pass
 Warmup Convergence Information,BUILDING STORY 9 THERMALZONE,SizingPeriod: BUFFALO NIAGARA INTL AP ANN CLG .4% CONDNS WB=>MDB 1,1.1987909398E-004,7.7827697892E-005,Pass,Pass,2.3606514736E-002,1.7210039529E-002,Pass,Pass
Environment,BUFFALO NIAGARA INTL AP ANN HTG 99.6% CONDNS DB 1,SizingPeriod:DesignDay,01/21,01/21,WinterDesignDay,1,N/A,N/A,N/A,N/A,N/A,N/A
Environment:Daylight Saving,No,SizingPeriod:DesignDay
Environment:Design Day Data,-16.30,0.00,DefaultMultipliers,98769,270,5.1,0.00,No,No
Environment:Design Day Misc, 21,1229.0,0.1415,5.7310E-002,1.0,-11.15,-20.1,ASHRAEClearSky
Environment:WarmupDays,  6
 Warmup Convergence Information,BUILDING STORY 1 THERMALZONE,SizingPeriod: BUFFALO NIAGARA INTL AP ANN HTG 99.6% CONDNS DB 1,3.0438529923E-006,1.0312026164E-006,Pass,Pass,7.8789173509E-007,3.1402097699E-007,Pass,Pass
 Warmup Convergence Information,BUILDING STORY 10 THERMALZONE,SizingPeriod: BUFFALO NIAGARA INTL AP ANN HTG 99.6% CONDNS DB 1,1.4049421330E-007,3.8227413564E-008,Pass,Pass,3.1731125036E-005,9.0807699772E-006,Pass,Pass
 Warmup Convergence Information,BUILDING STORY 2 THERMALZONE,SizingPeriod: BUFFALO NIAGARA INTL AP ANN HTG 99.6% CONDNS DB 1,6.9207558003E-003,2.6691058275E-003,Pass,Pass,6.7397528208E-003,2.9342154867E-003,Pass,Pass
 Warmup Convergence Information,BUILDING STORY 3 THERMALZONE,SizingPeriod: BUFFALO NIAGARA INTL AP ANN HTG 99.6% CONDNS DB 1,5.8005496702E-010,2.5050680855E-010,Pass,Pass,7.6312195262E-007,3.3488490564E-007,Pass,Pass
 Warmup Convergence Information,BUILDING STORY 4 THERMALZONE,SizingPeriod: BUFFALO NIAGARA INTL AP ANN HTG 99.6% CONDNS DB 1,3.4840640846E-005,7.0102897747E-006,Pass,Pass,7.7413595406E-006,1.8872650323E-006,Pass,Pass
 Warmup Convergence Information,BUILDING STORY 5 THERMALZONE,SizingPeriod: BUFFALO NIAGARA INTL AP ANN HTG 99.6% CONDNS DB 1,5.7556297506E-008,1.4584402463E-008,Pass,Pass,6.4227350263E-005,1.7161402183E-005,Pass,Pass
 Warmup Convergence Information,BUILDING STORY 6 THERMALZONE,SizingPeriod: BUFFALO NIAGARA INTL AP ANN HTG 99.6% CONDNS DB 1,6.6119948035E-008,1.6697935060E-008,Pass,Pass,6.8823644388E-005,1.8382927466E-005,Pass,Pass
 Warmup Convergence Information,BUILDING STORY 7 THERMALZONE,SizingPeriod: BUFFALO NIAGARA INTL AP ANN HTG 99.6% CONDNS DB 1,1.9944120429E-010,9.2533528974E-011,Pass,Pass,1.9768432152E-007,9.2931964723E-008,Pass,Pass
 Warmup Convergence Information,BUILDING STORY 8 THERMALZONE,SizingPeriod: BUFFALO NIAGARA INTL AP ANN HTG 99.6% CONDNS DB 1,8.2285832074E-008,2.2272759533E-008,Pass,Pass,1.5443137438E-005,4.4169950802E-006,Pass,Pass
 Warmup Convergence Information,BUILDING STORY 9 THERMALZONE,SizingPeriod: BUFFALO NIAGARA INTL AP ANN HTG 99.6% CONDNS DB 1,1.0128858345E-007,2.5867200915E-008,Pass,Pass,5.8286386913E-005,1.5591282661E-005,Pass,Pass
! <Program Control Information:Threads/Parallel Sims>, Threading Supported,Maximum Number of Threads, Env Set Threads (OMP_NUM_THREADS), EP Env Set Threads (EP_OMP_NUM_THREADS), IDF Set Threads, Number of Threads Used (Interior Radiant Exchange), Number Nominal Surfaces, Number Parallel Sims
Program Control:Threads/Parallel Sims, No,1, N/A, N/A, N/A, N/A, N/A, N/A
End of Data
