Program Version,EnergyPlus, Version 9.1.0-fafb9d5652, YMD=2020.03.26 13:33
! <Version>, Version ID
 Version, 9.1
! <Timesteps per Hour>, #TimeSteps, Minutes per TimeStep {minutes}
 Timesteps per Hour,  1, 60
! <System Convergence Limits>, Minimum System TimeStep {minutes}, Max HVAC Iterations, Minimum Plant Iterations, Maximum Plant Iterations
 System Convergence Limits, 1, 20, 2, 8
! <Simulation Control>, Do Zone Sizing, Do System Sizing, Do Plant Sizing, Do Design Days, Do Weather Simulation, Do HVAC Sizing Simulation
 Simulation Control, Yes, Yes, Yes, No, Yes, No
! <Output Reporting Tolerances>, Tolerance for Time Heating Setpoint Not Met, Tolerance for Zone Cooling Setpoint Not Met Time
 Output Reporting Tolerances, 0.556, 0.556, 
! <Site:GroundTemperature:BuildingSurface>,Jan{C},Feb{C},Mar{C},Apr{C},May{C},Jun{C},Jul{C},Aug{C},Sep{C},Oct{C},Nov{C},Dec{C}
 Site:GroundTemperature:BuildingSurface,  20.14,  20.06,  20.11,  20.22,  20.33,  20.46,  20.58,  20.63,  20.64,  20.54,  20.44,  20.26
! <Site:GroundTemperature:FCfactorMethod>,Jan{C},Feb{C},Mar{C},Apr{C},May{C},Jun{C},Jul{C},Aug{C},Sep{C},Oct{C},Nov{C},Dec{C}
 Site:GroundTemperature:FCfactorMethod,  -2.87,  -0.64,   3.71,   7.83,  15.62,  19.72,  20.85,  18.77,  13.96,   7.98,   2.08,  -1.81
! <Site:GroundTemperature:Shallow>,Jan{C},Feb{C},Mar{C},Apr{C},May{C},Jun{C},Jul{C},Aug{C},Sep{C},Oct{C},Nov{C},Dec{C}
 Site:GroundTemperature:Shallow,  13.00,  13.00,  13.00,  13.00,  13.00,  13.00,  13.00,  13.00,  13.00,  13.00,  13.00,  13.00
! <Site:GroundTemperature:Deep>,Jan{C},Feb{C},Mar{C},Apr{C},May{C},Jun{C},Jul{C},Aug{C},Sep{C},Oct{C},Nov{C},Dec{C}
 Site:GroundTemperature:Deep,  16.00,  16.00,  16.00,  16.00,  16.00,  16.00,  16.00,  16.00,  16.00,  16.00,  16.00,  16.00
! <Site:GroundReflectance>,Jan{dimensionless},Feb{dimensionless},Mar{dimensionless},Apr{dimensionless},May{dimensionless},Jun{dimensionless},Jul{dimensionless},Aug{dimensionless},Sep{dimensionless},Oct{dimensionless},Nov{dimensionless},Dec{dimensionless}
 Site:GroundReflectance,  0.20,  0.20,  0.20,  0.20,  0.20,  0.20,  0.20,  0.20,  0.20,  0.20,  0.20,  0.20
! <Site:GroundReflectance:SnowModifier>, Normal, Daylighting {dimensionless}
 Site:GroundReflectance:SnowModifier,   1.000,   1.000
! <Site:GroundReflectance:Snow>,Jan{dimensionless},Feb{dimensionless},Mar{dimensionless},Apr{dimensionless},May{dimensionless},Jun{dimensionless},Jul{dimensionless},Aug{dimensionless},Sep{dimensionless},Oct{dimensionless},Nov{dimensionless},Dec{dimensionless}
 Site:GroundReflectance:Snow,  0.20,  0.20,  0.20,  0.20,  0.20,  0.20,  0.20,  0.20,  0.20,  0.20,  0.20,  0.20
! <Site:GroundReflectance:Snow:Daylighting>,Jan{dimensionless},Feb{dimensionless},Mar{dimensionless},Apr{dimensionless},May{dimensionless},Jun{dimensionless},Jul{dimensionless},Aug{dimensionless},Sep{dimensionless},Oct{dimensionless},Nov{dimensionless},Dec{dimensionless}
 Site:GroundReflectance:Snow:Daylighting,  0.20,  0.20,  0.20,  0.20,  0.20,  0.20,  0.20,  0.20,  0.20,  0.20,  0.20,  0.20
! <Environment:Weather Station>,Wind Sensor Height Above Ground {m},Wind Speed Profile Exponent {},Wind Speed Profile Boundary Layer Thickness {m},Air Temperature Sensor Height Above Ground {m},Wind Speed Modifier Coefficient-Internal,Temperature Modifier Coefficient-Internal
Environment:Weather Station,10.000,0.140,270.000,1.500,1.586,9.750E-003
! <Site:Location>, Location Name, Latitude {N+/S- Deg}, Longitude {E+/W- Deg},  Time Zone Number {GMT+/-}, Elevation {m},  Standard Pressure at Elevation {Pa}, Standard RhoAir at Elevation
Site:Location,Buffalo Niagara Intl Ap NY USA TMY3 WMO#=725280,42.93,-78.73,-5.00,215.00,98769,1.1739
! <Site Water Mains Temperature Information>,Calculation Method{},Water Mains Temperature Schedule Name{},Annual Average Outdoor Air Temperature{C},Maximum Difference In Monthly Average Outdoor Air Temperatures{deltaC},Fixed Default Water Mains Temperature{C}
Site Water Mains Temperature Information,Correlation,NA,8.97,26.20,NA
! <Building Information>, Building Name,North Axis {deg},Terrain,  Loads Convergence Tolerance Value,Temperature Convergence Tolerance Value,  Solar Distribution,Maximum Number of Warmup Days,Minimum Number of Warmup Days
 Building Information,Mixed use 2,0.000,City,4.00000E-002,0.40000,FullExterior,25,6
! <Inside Convection Algorithm>, Algorithm {Simple | TARP | CeilingDiffuser | AdaptiveConvectionAlgorithm}
Inside Convection Algorithm,TARP
! <Outside Convection Algorithm>, Algorithm {SimpleCombined | TARP | MoWitt | DOE-2 | AdaptiveConvectionAlgorithm}
Outside Convection Algorithm,DOE-2
! <Sky Radiance Distribution>, Value {Anisotropic}
Sky Radiance Distribution,Anisotropic
! <Zone Air Solution Algorithm>, Value {ThirdOrderBackwardDifference | AnalyticalSolution | EulerMethod}
 Zone Air Solution Algorithm, ThirdOrderBackwardDifference
! <Zone Air Carbon Dioxide Balance Simulation>, Simulation {Yes/No}, Carbon Dioxide Concentration
 Zone Air Carbon Dioxide Balance Simulation, No,N/A
! <Zone Air Generic Contaminant Balance Simulation>, Simulation {Yes/No}, Generic Contaminant Concentration
 Zone Air Generic Contaminant Balance Simulation, No,N/A
! <Zone Air Mass Flow Balance Simulation>, Enforce Mass Balance, Adjust Zone Mixing, Adjust Zone Infiltration {AddInfiltration | AdjustInfiltration | None}, Infiltration Zones {MixingSourceZonesOnly | AllZones}
 Zone Air Mass Flow Balance Simulation, No,N/A,N/A,N/A
! <HVACSystemRootFindingAlgorithm>, Value {RegulaFalsi | Bisection | BisectionThenRegulaFalsi | RegulaFalsiThenBisection}
 HVACSystemRootFindingAlgorithm, RegulaFalsi
! <Environment:Site Atmospheric Variation>,Wind Speed Profile Exponent {},Wind Speed Profile Boundary Layer Thickness {m},Air Temperature Gradient Coefficient {K/m}
Environment:Site Atmospheric Variation,0.330,460.000,6.500000E-003
! <Surface Geometry>,Starting Corner,Vertex Input Direction,Coordinate System,Daylight Reference Point Coordinate System,Rectangular (Simple) Surface Coordinate System
 Surface Geometry,UpperLeftCorner,Counterclockwise,RelativeCoordinateSystem,RelativeCoordinateSystem,RelativeToZoneOrigin
! <Surface Heat Transfer Algorithm>, Value {CTF - ConductionTransferFunction | EMPD - MoisturePenetrationDepthConductionTransferFunction | CondFD - ConductionFiniteDifference | HAMT - CombinedHeatAndMoistureFiniteElement} - Description,Inside Surface Max Temperature Limit{C}, Surface Convection Coefficient Lower Limit {W/m2-K}, Surface Convection Coefficient Upper Limit {W/m2-K}
Surface Heat Transfer Algorithm, CTF - ConductionTransferFunction,200,0.10,1000.0
! <Shading Summary>, Number of Fixed Detached Shades, Number of Building Detached Shades, Number of Attached Shades
 Shading Summary,0,80,0
! <Zone Summary>, Number of Zones, Number of Zone Surfaces, Number of SubSurfaces
 Zone Summary,8,231,48
! <Zone Information>,Zone Name,North Axis {deg},Origin X-Coordinate {m},Origin Y-Coordinate {m},Origin Z-Coordinate {m},Centroid X-Coordinate {m},Centroid Y-Coordinate {m},Centroid Z-Coordinate {m},Type,Zone Multiplier,Zone List Multiplier,Minimum X {m},Maximum X {m},Minimum Y {m},Maximum Y {m},Minimum Z {m},Maximum Z {m},Ceiling Height {m},Volume {m3},Zone Inside Convection Algorithm {Simple-Detailed-CeilingDiffuser-TrombeWall},Zone Outside Convection Algorithm {Simple-Detailed-Tarp-MoWitt-DOE-2-BLAST}, Floor Area {m2},Exterior Gross Wall Area {m2},Exterior Net Wall Area {m2},Exterior Window Area {m2}, Number of Surfaces, Number of SubSurfaces, Number of Shading SubSurfaces,  Part of Total Building Area
 Zone Information, BUILDING STORY 1 THERMALZONE,0.0,0.00,0.00,0.00,85.89,136.75,1.50,1,1,1,-5.35E-011,152.15,3.35E-004,248.23,0.00,3.00,3.00,44513.73,TARP,DOE-2,14837.91,2135.15,1494.60,640.54,8,6,0,Yes
 Zone Information, BUILDING STORY 2 THERMALZONE,0.0,0.00,0.00,0.00,85.89,136.75,4.50,1,1,1,-5.35E-011,152.15,3.35E-004,248.23,3.00,6.00,3.00,44513.73,TARP,DOE-2,14837.91,2135.15,1494.60,640.54,8,6,0,Yes
 Zone Information, BUILDING STORY 3 THERMALZONE,0.0,0.00,0.00,0.00,85.89,136.75,7.50,1,1,1,-5.35E-011,152.15,3.35E-004,248.23,6.00,9.00,3.00,44513.73,TARP,DOE-2,14837.91,2135.15,1494.60,640.54,8,6,0,Yes
 Zone Information, BUILDING STORY 4 THERMALZONE,0.0,0.00,0.00,0.00,85.89,136.75,10.50,1,1,1,-5.35E-011,152.15,3.35E-004,248.23,9.00,12.00,3.00,44513.73,TARP,DOE-2,14837.91,2135.15,1494.60,640.54,8,6,0,Yes
 Zone Information, BUILDING STORY 5 THERMALZONE,0.0,0.00,0.00,0.00,85.89,136.75,13.50,1,1,1,-5.35E-011,152.15,3.35E-004,248.23,12.00,15.00,3.00,44513.73,TARP,DOE-2,14837.91,2135.15,1494.60,640.54,8,6,0,Yes
 Zone Information, BUILDING STORY 6 THERMALZONE,0.0,0.00,0.00,0.00,85.89,136.75,16.50,1,1,1,-5.35E-011,152.15,3.35E-004,248.23,15.00,18.00,3.00,44513.73,TARP,DOE-2,14837.91,2135.15,1494.60,640.54,8,6,0,Yes
 Zone Information, BUILDING STORY 7 THERMALZONE,0.0,0.00,0.00,0.00,85.89,136.75,19.50,1,1,1,-5.35E-011,152.15,3.35E-004,248.23,18.00,21.00,3.00,44513.73,TARP,DOE-2,14837.91,2135.15,1494.60,640.54,8,6,0,Yes
 Zone Information, BUILDING STORY 8 THERMALZONE,0.0,0.00,0.00,0.00,85.89,136.75,22.50,1,1,1,-5.35E-011,152.15,3.35E-004,248.23,21.00,24.00,3.00,44513.73,TARP,DOE-2,14837.91,2135.15,1494.60,640.54,8,6,0,Yes
! <Zone Internal Gains Nominal>,Zone Name, Floor Area {m2},# Occupants,Area per Occupant {m2/person},Occupant per Area {person/m2},Interior Lighting {W/m2},Electric Load {W/m2},Gas Load {W/m2},Other Load {W/m2},Hot Water Eq {W/m2},Steam Equipment {W/m2},Sum Loads per Area {W/m2},Outdoor Controlled Baseboard Heat
 Zone Internal Gains Nominal, BUILDING STORY 1 THERMALZONE,14837.91,798.6,18.581,5.382E-002,8.826,78.268,0.000,0.000,0.000,0.000,87.095,No
 Zone Internal Gains Nominal, BUILDING STORY 2 THERMALZONE,14837.91,1181.9,12.554,7.965E-002,15.221,5.059,0.000,0.000,0.000,0.000,20.280,No
 Zone Internal Gains Nominal, BUILDING STORY 3 THERMALZONE,14837.91,11180.0,1.327,0.753,9.580,64.928,0.000,0.000,0.000,0.000,74.508,No
 Zone Internal Gains Nominal, BUILDING STORY 4 THERMALZONE,14837.91,493.1,30.092,3.323E-002,9.045,4.811,0.000,0.000,0.000,0.000,13.857,No
 Zone Internal Gains Nominal, BUILDING STORY 5 THERMALZONE,14837.91,3535.4,4.197,0.238,12.330,237.785,354.229,0.000,0.000,0.000,604.343,No
 Zone Internal Gains Nominal, BUILDING STORY 6 THERMALZONE,14837.91,7096.1,2.091,0.478,10.415,47.663,87.223,0.000,0.000,0.000,145.302,No
 Zone Internal Gains Nominal, BUILDING STORY 7 THERMALZONE,14837.91,400.5,37.045,2.699E-002,8.995,4.741,0.000,0.000,0.000,0.000,13.736,No
 Zone Internal Gains Nominal, BUILDING STORY 8 THERMALZONE,14837.91,1277.7,11.613,8.611E-002,14.256,4.306,0.000,0.000,0.000,0.000,18.562,No
! <People Internal Gains Nominal>,Name,Schedule Name,Zone Name,Zone Floor Area {m2},# Zone Occupants,Number of People {},People/Floor Area {person/m2},Floor Area per person {m2/person},Fraction Radiant,Fraction Convected,Sensible Fraction Calculation,Activity level,ASHRAE 55 Warnings,Carbon Dioxide Generation Rate,Nominal Minimum Number of People,Nominal Maximum Number of People,MRT Calculation Type,Work Efficiency, Clothing Insulation Calculation Method,Clothing Insulation Calculation Method Schedule,Clothing,Air Velocity,Fanger Calculation,Pierce Calculation,KSU Calculation
 People Internal Gains Nominal, BUILDING STORY 1 THERMALZONE OFFICE WHOLEBUILDING - MD OFFICE PEOPLE 1,OFFICEMEDIUM BLDG_OCC_SCH,BUILDING STORY 1 THERMALZONE,14837.91,798.6,798.6,5.382E-002,18.581,0.300,0.700,AutoCalculate,OFFICEMEDIUM ACTIVITY_SCH,Yes,3.8200E-008,0,799,Zone Averaged,WORK EFFICIENCY SCHEDULE,Clothing Insulation Schedule,N/A,CLOTHING SCHEDULE,AIR VELOCITY SCHEDULE,Yes,No,No
 People Internal Gains Nominal, BUILDING STORY 2 THERMALZONE OFFICE WHOLEBUILDING - MD OFFICE PEOPLE 2,OFFICEMEDIUM BLDG_OCC_SCH,BUILDING STORY 2 THERMALZONE,14837.91,1181.9,159.7,1.076E-002,92.903,0.300,0.700,AutoCalculate,OFFICEMEDIUM ACTIVITY_SCH,Yes,3.8200E-008,0,160,Zone Averaged,WORK EFFICIENCY SCHEDULE,Clothing Insulation Schedule,N/A,CLOTHING SCHEDULE,AIR VELOCITY SCHEDULE,Yes,No,No
 People Internal Gains Nominal, BUILDING STORY 2 THERMALZONE STRIPMALL STRIP MALL - TYPE 1 PEOPLE 1,RETAILSTRIPMALL TYPE1_OCC_SCH,BUILDING STORY 2 THERMALZONE,14837.91,1181.9,638.9,4.306E-002,23.226,0.300,0.700,AutoCalculate,HOTELSMALL ACTIVITY_SCH,Yes,3.8200E-008,0,639,Zone Averaged,WORK EFFICIENCY SCHEDULE,Clothing Insulation Schedule,N/A,CLOTHING SCHEDULE,AIR VELOCITY SCHEDULE,Yes,No,No
 People Internal Gains Nominal, BUILDING STORY 2 THERMALZONE STRIPMALL STRIP MALL - TYPE 2 PEOPLE 1,RETAILSTRIPMALL TYPE2_OCC_SCH,BUILDING STORY 2 THERMALZONE,14837.91,1181.9,383.3,2.583E-002,38.710,0.300,0.700,AutoCalculate,HOTELSMALL ACTIVITY_SCH,Yes,3.8200E-008,0,383,Zone Averaged,WORK EFFICIENCY SCHEDULE,Clothing Insulation Schedule,N/A,CLOTHING SCHEDULE,AIR VELOCITY SCHEDULE,Yes,No,No
 People Internal Gains Nominal, BUILDING STORY 8 THERMALZONE STRIPMALL STRIP MALL - TYPE 2 PEOPLE 2,RETAILSTRIPMALL TYPE2_OCC_SCH,BUILDING STORY 8 THERMALZONE,14837.91,1277.7,255.5,1.722E-002,58.064,0.300,0.700,AutoCalculate,HOTELSMALL ACTIVITY_SCH,Yes,3.8200E-008,0,256,Zone Averaged,WORK EFFICIENCY SCHEDULE,Clothing Insulation Schedule,N/A,CLOTHING SCHEDULE,AIR VELOCITY SCHEDULE,Yes,No,No
 People Internal Gains Nominal, BUILDING STORY 8 THERMALZONE STRIPMALL STRIP MALL - TYPE 3 PEOPLE 1,RETAILSTRIPMALL TYPE3_OCC_SCH,BUILDING STORY 8 THERMALZONE,14837.91,1277.7,1022.2,6.889E-002,14.516,0.300,0.700,AutoCalculate,HOTELSMALL ACTIVITY_SCH,Yes,3.8200E-008,0,1022,Zone Averaged,WORK EFFICIENCY SCHEDULE,Clothing Insulation Schedule,N/A,CLOTHING SCHEDULE,AIR VELOCITY SCHEDULE,Yes,No,No
 People Internal Gains Nominal, BUILDING STORY 5 THERMALZONE FULLSERVICERESTAURANT DINING PEOPLE 1,RESTAURANTSITDOWN BLDG_OCC_SCH,BUILDING STORY 5 THERMALZONE,14837.91,3535.4,2844.2,0.192,5.217,0.300,0.700,AutoCalculate,RESTAURANTSITDOWN ACTIVITY_SCH,Yes,3.8200E-008,0,2844,Zone Averaged,WORK EFFICIENCY SCHEDULE,Clothing Insulation Schedule,N/A,CLOTHING SCHEDULE,AIR VELOCITY SCHEDULE,Yes,No,No
 People Internal Gains Nominal, BUILDING STORY 5 THERMALZONE FULLSERVICERESTAURANT KITCHEN PEOPLE 1,RESTAURANTSITDOWN BLDG_OCC_SCH,BUILDING STORY 5 THERMALZONE,14837.91,3535.4,435.7,2.936E-002,34.055,0.300,0.700,AutoCalculate,RESTAURANTSITDOWN ACTIVITY_SCH,Yes,3.8200E-008,0,436,Zone Averaged,WORK EFFICIENCY SCHEDULE,Clothing Insulation Schedule,N/A,CLOTHING SCHEDULE,AIR VELOCITY SCHEDULE,Yes,No,No
 People Internal Gains Nominal, BUILDING STORY 5 THERMALZONE STRIPMALL STRIP MALL - TYPE 3 PEOPLE 2,RETAILSTRIPMALL TYPE3_OCC_SCH,BUILDING STORY 5 THERMALZONE,14837.91,3535.4,255.5,1.722E-002,58.064,0.300,0.700,AutoCalculate,HOTELSMALL ACTIVITY_SCH,Yes,3.8200E-008,0,256,Zone Averaged,WORK EFFICIENCY SCHEDULE,Clothing Insulation Schedule,N/A,CLOTHING SCHEDULE,AIR VELOCITY SCHEDULE,Yes,No,No
 People Internal Gains Nominal, BUILDING STORY 3 THERMALZONE FULLSERVICERESTAURANT DINING PEOPLE 2,RESTAURANTSITDOWN BLDG_OCC_SCH,BUILDING STORY 3 THERMALZONE,14837.91,11180.0,11180.0,0.753,1.327,0.300,0.700,AutoCalculate,RESTAURANTSITDOWN ACTIVITY_SCH,Yes,3.8200E-008,0,11180,Zone Averaged,WORK EFFICIENCY SCHEDULE,Clothing Insulation Schedule,N/A,CLOTHING SCHEDULE,AIR VELOCITY SCHEDULE,Yes,No,No
 People Internal Gains Nominal, BUILDING STORY 6 THERMALZONE FULLSERVICERESTAURANT DINING PEOPLE 3,RESTAURANTSITDOWN BLDG_OCC_SCH,BUILDING STORY 6 THERMALZONE,14837.91,7096.1,2236.0,0.151,6.636,0.300,0.700,AutoCalculate,RESTAURANTSITDOWN ACTIVITY_SCH,Yes,3.8200E-008,0,2236,Zone Averaged,WORK EFFICIENCY SCHEDULE,Clothing Insulation Schedule,N/A,CLOTHING SCHEDULE,AIR VELOCITY SCHEDULE,Yes,No,No
 People Internal Gains Nominal, BUILDING STORY 6 THERMALZONE LARGEHOTEL BANQUET PEOPLE 1,HOTELLARGE BLDG_OCC_SCH,BUILDING STORY 6 THERMALZONE,14837.91,7096.1,2218.1,0.149,6.689,0.300,0.700,AutoCalculate,HOTELLARGE ACTIVITY_SCH,Yes,3.8200E-008,0,2218,Zone Averaged,WORK EFFICIENCY SCHEDULE,Clothing Insulation Schedule,N/A,CLOTHING SCHEDULE,AIR VELOCITY SCHEDULE,Yes,No,No
 People Internal Gains Nominal, BUILDING STORY 6 THERMALZONE LARGEHOTEL CAFE PEOPLE 1,HOTELLARGE BLDG_OCC_SCH,BUILDING STORY 6 THERMALZONE,14837.91,7096.1,629.4,4.242E-002,23.574,0.300,0.700,AutoCalculate,HOTELLARGE ACTIVITY_SCH,Yes,3.8200E-008,0,629,Zone Averaged,WORK EFFICIENCY SCHEDULE,Clothing Insulation Schedule,N/A,CLOTHING SCHEDULE,AIR VELOCITY SCHEDULE,Yes,No,No
 People Internal Gains Nominal, BUILDING STORY 6 THERMALZONE LARGEHOTEL KITCHEN PEOPLE 1,HOTELLARGE BLDG_OCC_SCH,BUILDING STORY 6 THERMALZONE,14837.91,7096.1,98.6,6.644E-003,150.512,0.300,0.700,AutoCalculate,HOTELLARGE ACTIVITY_SCH,Yes,3.8200E-008,0,99,Zone Averaged,WORK EFFICIENCY SCHEDULE,Clothing Insulation Schedule,N/A,CLOTHING SCHEDULE,AIR VELOCITY SCHEDULE,Yes,No,No
 People Internal Gains Nominal, BUILDING STORY 6 THERMALZONE LARGEHOTEL LAUNDRY PEOPLE 1,HOTELLARGE BLDG_OCC_SCH,BUILDING STORY 6 THERMALZONE,14837.91,7096.1,37.4,2.519E-003,397.002,0.300,0.700,AutoCalculate,HOTELLARGE ACTIVITY_SCH,Yes,3.8200E-008,0,37,Zone Averaged,WORK EFFICIENCY SCHEDULE,Clothing Insulation Schedule,N/A,CLOTHING SCHEDULE,AIR VELOCITY SCHEDULE,Yes,No,No
 People Internal Gains Nominal, BUILDING STORY 6 THERMALZONE LARGEHOTEL LOBBY PEOPLE 1,HOTELLARGE BLDG_OCC_SCH,BUILDING STORY 6 THERMALZONE,14837.91,7096.1,1772.6,0.119,8.371,0.300,0.700,AutoCalculate,HOTELLARGE ACTIVITY_SCH,Yes,3.8200E-008,0,1773,Zone Averaged,WORK EFFICIENCY SCHEDULE,Clothing Insulation Schedule,N/A,CLOTHING SCHEDULE,AIR VELOCITY SCHEDULE,Yes,No,No
 People Internal Gains Nominal, BUILDING STORY 6 THERMALZONE LARGEHOTEL RETAIL PEOPLE 1,HOTELLARGE BLDG_OCC_SCH,BUILDING STORY 6 THERMALZONE,14837.91,7096.1,104.0,7.009E-003,142.673,0.300,0.700,AutoCalculate,HOTELLARGE ACTIVITY_SCH,Yes,3.8200E-008,0,104,Zone Averaged,WORK EFFICIENCY SCHEDULE,Clothing Insulation Schedule,N/A,CLOTHING SCHEDULE,AIR VELOCITY SCHEDULE,Yes,No,No
 People Internal Gains Nominal, BUILDING STORY 4 THERMALZONE LARGEHOTEL GUESTROOM PEOPLE 1,HOTELLARGE GUESTROOM_OCC_SCH,BUILDING STORY 4 THERMALZONE,14837.91,493.1,392.1,2.643E-002,37.842,0.300,0.700,AutoCalculate,HOTELLARGE ACTIVITY_SCH,Yes,3.8200E-008,0,392,Zone Averaged,WORK EFFICIENCY SCHEDULE,Clothing Insulation Schedule,N/A,CLOTHING SCHEDULE,AIR VELOCITY SCHEDULE,Yes,No,No
 People Internal Gains Nominal, BUILDING STORY 4 THERMALZONE LARGEHOTEL LOBBY PEOPLE 2,HOTELLARGE BLDG_OCC_SCH,BUILDING STORY 4 THERMALZONE,14837.91,493.1,101.0,6.806E-003,146.936,0.300,0.700,AutoCalculate,HOTELLARGE ACTIVITY_SCH,Yes,3.8200E-008,0,101,Zone Averaged,WORK EFFICIENCY SCHEDULE,Clothing Insulation Schedule,N/A,CLOTHING SCHEDULE,AIR VELOCITY SCHEDULE,Yes,No,No
 People Internal Gains Nominal, BUILDING STORY 7 THERMALZONE LARGEHOTEL GUESTROOM PEOPLE 2,HOTELLARGE GUESTROOM_OCC_SCH,BUILDING STORY 7 THERMALZONE,14837.91,400.5,400.5,2.699E-002,37.045,0.300,0.700,AutoCalculate,HOTELLARGE ACTIVITY_SCH,Yes,3.8200E-008,0,401,Zone Averaged,WORK EFFICIENCY SCHEDULE,Clothing Insulation Schedule,N/A,CLOTHING SCHEDULE,AIR VELOCITY SCHEDULE,Yes,No,No
! <Lights Internal Gains Nominal>,Name,Schedule Name,Zone Name,Zone Floor Area {m2},# Zone Occupants,Lighting Level {W},Lights/Floor Area {W/m2},Lights per person {W/person},Fraction Return Air,Fraction Radiant,Fraction Short Wave,Fraction Convected,Fraction Replaceable,End-Use Category,Nominal Minimum Lighting Level {W},Nominal Maximum Lighting Level {W}
 Lights Internal Gains Nominal, BUILDING STORY 1 THERMALZONE OFFICE WHOLEBUILDING - MD OFFICE LIGHTS 1,OFFICEMEDIUM BLDG_LIGHT_SCH_2013,BUILDING STORY 1 THERMALZONE,14837.91,798.6,130965.422,8.826,164.000,0.000,0.700,0.200,0.100,1.000,General,0.000,130965.422
 Lights Internal Gains Nominal, BUILDING STORY 2 THERMALZONE OFFICE WHOLEBUILDING - MD OFFICE LIGHTS 2,OFFICEMEDIUM BLDG_LIGHT_SCH_2013,BUILDING STORY 2 THERMALZONE,14837.91,1181.9,26193.084,1.765,22.162,0.000,0.700,0.200,0.100,1.000,General,0.000,26193.084
 Lights Internal Gains Nominal, BUILDING STORY 2 THERMALZONE STRIPMALL STRIP MALL - TYPE 1 ADDITIONAL LIGHTS 1,RETAILSTRIPMALL TYPE1_LIGHT_SCH_2013,BUILDING STORY 2 THERMALZONE,14837.91,1181.9,30621.952,2.064,25.909,0.000,0.700,0.200,0.100,1.000,General,0.000,30621.952
 Lights Internal Gains Nominal, BUILDING STORY 2 THERMALZONE STRIPMALL STRIP MALL - TYPE 1 LIGHTS 1,RETAILSTRIPMALL TYPE1_LIGHT_SCH_2013,BUILDING STORY 2 THERMALZONE,14837.91,1181.9,99821.205,6.727,84.459,0.000,0.700,0.200,0.100,1.000,General,0.000,99821.205
 Lights Internal Gains Nominal, BUILDING STORY 2 THERMALZONE STRIPMALL STRIP MALL - TYPE 2 ADDITIONAL LIGHTS 1,RETAILSTRIPMALL TYPE2_LIGHT_SCH_2013,BUILDING STORY 2 THERMALZONE,14837.91,1181.9,9317.391,0.628,7.884,0.000,0.700,0.200,0.100,1.000,General,0.000,9317.391
 Lights Internal Gains Nominal, BUILDING STORY 2 THERMALZONE STRIPMALL STRIP MALL - TYPE 2 LIGHTS 1,RETAILSTRIPMALL TYPE2_LIGHT_SCH_2013,BUILDING STORY 2 THERMALZONE,14837.91,1181.9,59892.723,4.036,50.676,0.000,0.700,0.200,0.100,1.000,General,0.000,59892.723
 Lights Internal Gains Nominal, BUILDING STORY 8 THERMALZONE STRIPMALL STRIP MALL - TYPE 2 ADDITIONAL LIGHTS 2,RETAILSTRIPMALL TYPE2_LIGHT_SCH_2013,BUILDING STORY 8 THERMALZONE,14837.91,1277.7,6211.594,0.419,4.861,0.000,0.700,0.200,0.100,1.000,General,0.000,6211.594
 Lights Internal Gains Nominal, BUILDING STORY 8 THERMALZONE STRIPMALL STRIP MALL - TYPE 2 LIGHTS 2,RETAILSTRIPMALL TYPE2_LIGHT_SCH_2013,BUILDING STORY 8 THERMALZONE,14837.91,1277.7,39928.482,2.691,31.250,0.000,0.700,0.200,0.100,1.000,General,0.000,39928.482
 Lights Internal Gains Nominal, BUILDING STORY 8 THERMALZONE STRIPMALL STRIP MALL - TYPE 3 ADDITIONAL LIGHTS 1,RETAILSTRIPMALL TYPE3_LIGHT_SCH_2013,BUILDING STORY 8 THERMALZONE,14837.91,1277.7,5680.833,0.383,4.446,0.000,0.700,0.200,0.100,1.000,General,0.000,5680.833
 Lights Internal Gains Nominal, BUILDING STORY 8 THERMALZONE STRIPMALL STRIP MALL - TYPE 3 LIGHTS 1,RETAILSTRIPMALL TYPE3_LIGHT_SCH_2013,BUILDING STORY 8 THERMALZONE,14837.91,1277.7,159713.929,10.764,125.000,0.000,0.700,0.200,0.100,1.000,General,0.000,159713.929
 Lights Internal Gains Nominal, BUILDING STORY 5 THERMALZONE FULLSERVICERESTAURANT DINING LIGHTS 1,RESTAURANTSITDOWN BLDG_LIGHT_DINING_SCH_2013,BUILDING STORY 5 THERMALZONE,14837.91,3535.4,36161.789,2.437,10.228,0.000,0.700,0.200,0.100,1.000,General,0.000,36161.789
 Lights Internal Gains Nominal, BUILDING STORY 5 THERMALZONE FULLSERVICERESTAURANT KITCHEN LIGHTS 1,RESTAURANTSITDOWN BLDG_LIGHT_KITCHEN_SCH_2010_2013,BUILDING STORY 5 THERMALZONE,14837.91,3535.4,105439.303,7.106,29.824,0.000,0.700,0.200,0.100,1.000,General,0.000,105439.303
 Lights Internal Gains Nominal, BUILDING STORY 5 THERMALZONE STRIPMALL STRIP MALL - TYPE 3 ADDITIONAL LIGHTS 2,RETAILSTRIPMALL TYPE3_LIGHT_SCH_2013,BUILDING STORY 5 THERMALZONE,14837.91,3535.4,1420.208,9.571E-002,0.402,0.000,0.700,0.200,0.100,1.000,General,0.000,1420.208
 Lights Internal Gains Nominal, BUILDING STORY 5 THERMALZONE STRIPMALL STRIP MALL - TYPE 3 LIGHTS 2,RETAILSTRIPMALL TYPE3_LIGHT_SCH_2013,BUILDING STORY 5 THERMALZONE,14837.91,3535.4,39928.482,2.691,11.294,0.000,0.700,0.200,0.100,1.000,General,0.000,39928.482
 Lights Internal Gains Nominal, BUILDING STORY 3 THERMALZONE FULLSERVICERESTAURANT DINING LIGHTS 2,RESTAURANTSITDOWN BLDG_LIGHT_DINING_SCH_2013,BUILDING STORY 3 THERMALZONE,14837.91,11180.0,142145.397,9.580,12.714,0.000,0.700,0.200,0.100,1.000,General,0.000,142145.397
 Lights Internal Gains Nominal, BUILDING STORY 6 THERMALZONE FULLSERVICERESTAURANT DINING LIGHTS 3,RESTAURANTSITDOWN BLDG_LIGHT_DINING_SCH_2013,BUILDING STORY 6 THERMALZONE,14837.91,7096.1,28429.079,1.916,4.006,0.000,0.700,0.200,0.100,1.000,General,0.000,28429.079
 Lights Internal Gains Nominal, BUILDING STORY 6 THERMALZONE LARGEHOTEL BANQUET LIGHTS 1,HOTELLARGE BLDG_LIGHT_SCH_2013,BUILDING STORY 6 THERMALZONE,14837.91,7096.1,28201.812,1.901,3.974,0.000,0.700,0.200,0.100,1.000,General,0.000,28201.812
 Lights Internal Gains Nominal, BUILDING STORY 6 THERMALZONE LARGEHOTEL CAFE LIGHTS 1,HOTELLARGE BLDG_LIGHT_SCH_2013,BUILDING STORY 6 THERMALZONE,14837.91,7096.1,8002.565,0.539,1.128,0.000,0.700,0.200,0.100,1.000,General,0.000,8002.565
 Lights Internal Gains Nominal, BUILDING STORY 6 THERMALZONE LARGEHOTEL KITCHEN LIGHTS 1,HOTELLARGE BLDG_LIGHT_SCH_2013,BUILDING STORY 6 THERMALZONE,14837.91,7096.1,5964.278,0.402,0.840,0.000,0.700,0.200,0.100,1.000,General,0.000,5964.278
 Lights Internal Gains Nominal, BUILDING STORY 6 THERMALZONE LARGEHOTEL LAUNDRY LIGHTS 1,HOTELLARGE BLDG_LIGHT_SCH_2013,BUILDING STORY 6 THERMALZONE,14837.91,7096.1,2242.495,0.151,0.316,0.000,0.700,0.200,0.100,1.000,General,0.000,2242.495
 Lights Internal Gains Nominal, BUILDING STORY 6 THERMALZONE LARGEHOTEL LOBBY LIGHTS 1,HOTELLARGE BLDG_LIGHT_SCH_2013,BUILDING STORY 6 THERMALZONE,14837.91,7096.1,62633.241,4.221,8.826,0.000,0.700,0.200,0.100,1.000,General,0.000,62633.241
 Lights Internal Gains Nominal, BUILDING STORY 6 THERMALZONE LARGEHOTEL MECHANICAL LIGHTS 1,HOTELLARGE BLDG_LIGHT_MECHANIC_SCH_2013,BUILDING STORY 6 THERMALZONE,14837.91,7096.1,7461.442,0.503,1.051,0.000,0.700,0.200,0.100,1.000,General,0.000,7461.442
 Lights Internal Gains Nominal, BUILDING STORY 6 THERMALZONE LARGEHOTEL RETAIL LIGHTS 1,HOTELLARGE BLDG_LIGHT_SCH_2013,BUILDING STORY 6 THERMALZONE,14837.91,7096.1,8735.980,0.589,1.231,0.000,0.700,0.200,0.100,1.000,General,0.000,8735.980
 Lights Internal Gains Nominal, BUILDING STORY 6 THERMALZONE LARGEHOTEL STORAGE LIGHTS 1,HOTELLARGE BLDG_LIGHT_STORAGE_SCH_2013,BUILDING STORY 6 THERMALZONE,14837.91,7096.1,2866.494,0.193,0.404,0.000,0.700,0.200,0.100,1.000,General,0.000,2866.494
 Lights Internal Gains Nominal, BUILDING STORY 4 THERMALZONE LARGEHOTEL CORRIDOR LIGHTS 1,HOTELLARGE BLDG_LIGHT_CORRIDOR_SCH_2013,BUILDING STORY 4 THERMALZONE,14837.91,493.1,30700.451,2.069,62.262,0.000,0.700,0.200,0.100,1.000,General,0.000,30700.451
 Lights Internal Gains Nominal, BUILDING STORY 4 THERMALZONE LARGEHOTEL GUESTROOM LIGHTS 1,HOTELLARGE BLDG_LIGHT_GUESTROOM_SCH_2013,BUILDING STORY 4 THERMALZONE,14837.91,493.1,99947.148,6.736,202.699,0.000,0.700,0.200,0.100,1.000,General,0.000,99947.148
 Lights Internal Gains Nominal, BUILDING STORY 4 THERMALZONE LARGEHOTEL LOBBY LIGHTS 2,HOTELLARGE BLDG_LIGHT_SCH_2013,BUILDING STORY 4 THERMALZONE,14837.91,493.1,3568.028,0.240,7.236,0.000,0.700,0.200,0.100,1.000,General,0.000,3568.028
 Lights Internal Gains Nominal, BUILDING STORY 7 THERMALZONE LARGEHOTEL CORRIDOR LIGHTS 2,HOTELLARGE BLDG_LIGHT_CORRIDOR_SCH_2013,BUILDING STORY 7 THERMALZONE,14837.91,400.5,31361.411,2.114,78.297,0.000,0.700,0.200,0.100,1.000,General,0.000,31361.411
 Lights Internal Gains Nominal, BUILDING STORY 7 THERMALZONE LARGEHOTEL GUESTROOM LIGHTS 2,HOTELLARGE BLDG_LIGHT_GUESTROOM_SCH_2013,BUILDING STORY 7 THERMALZONE,14837.91,400.5,102098.942,6.881,254.902,0.000,0.700,0.200,0.100,1.000,General,0.000,102098.942
! <ElectricEquipment Internal Gains Nominal>,Name,Schedule Name,Zone Name,Zone Floor Area {m2},# Zone Occupants,Equipment Level {W},Equipment/Floor Area {W/m2},Equipment per person {W/person},Fraction Latent,Fraction Radiant,Fraction Lost,Fraction Convected,End-Use SubCategory,Nominal Minimum Equipment Level {W},Nominal Maximum Equipment Level {W}
 ElectricEquipment Internal Gains Nominal, BUILDING STORY 1 THERMALZONE 51 ELEVATOR FANS,ELEVATOR SCHEDULE 3,BUILDING STORY 1 THERMALZONE,14837.91,798.6,1578.006,0.106,1.976,0.000,0.500,0.000,0.500,Elevators,0.000,1578.006
 ElectricEquipment Internal Gains Nominal, BUILDING STORY 1 THERMALZONE 51 ELEVATOR LIFT MOTORS,ELEVATOR SCHEDULE 1,BUILDING STORY 1 THERMALZONE,14837.91,798.6,1038323.441,69.978,1300.229,0.000,0.000,1.000,0.000,Elevators,0.000,1038323.441
 ElectricEquipment Internal Gains Nominal, BUILDING STORY 1 THERMALZONE 51 ELEVATOR LIGHTS,ELEVATOR SCHEDULE 2,BUILDING STORY 1 THERMALZONE,14837.91,798.6,1648.909,0.111,2.065,0.000,0.500,0.000,0.500,Elevators,0.000,1648.909
 ElectricEquipment Internal Gains Nominal, BUILDING STORY 1 THERMALZONE OFFICE WHOLEBUILDING - MD OFFICE ELEC EQUIP 1,OFFICEMEDIUM BLDG_EQUIP_SCH_2013,BUILDING STORY 1 THERMALZONE,14837.91,798.6,119785.447,8.073,150.000,0.000,0.500,0.000,0.500,General,0.000,119785.447
 ElectricEquipment Internal Gains Nominal, BUILDING STORY 2 THERMALZONE OFFICE WHOLEBUILDING - MD OFFICE ELEC EQUIP 2,OFFICEMEDIUM BLDG_EQUIP_SCH_2013,BUILDING STORY 2 THERMALZONE,14837.91,1181.9,23957.089,1.615,20.270,0.000,0.500,0.000,0.500,General,0.000,23957.089
 ElectricEquipment Internal Gains Nominal, BUILDING STORY 2 THERMALZONE STRIPMALL STRIP MALL - TYPE 1 ELEC EQUIP 1,RETAILSTRIPMALL TYPE1_EQUIP_SCH,BUILDING STORY 2 THERMALZONE,14837.91,1181.9,31942.786,2.153,27.027,0.000,0.500,0.000,0.500,General,0.000,31942.786
 ElectricEquipment Internal Gains Nominal, BUILDING STORY 2 THERMALZONE STRIPMALL STRIP MALL - TYPE 2 ELEC EQUIP 1,RETAILSTRIPMALL TYPE2_EQUIP_SCH,BUILDING STORY 2 THERMALZONE,14837.91,1181.9,19165.671,1.292,16.216,0.000,0.500,0.000,0.500,General,0.000,19165.671
 ElectricEquipment Internal Gains Nominal, BUILDING STORY 8 THERMALZONE STRIPMALL STRIP MALL - TYPE 2 ELEC EQUIP 2,RETAILSTRIPMALL TYPE2_EQUIP_SCH,BUILDING STORY 8 THERMALZONE,14837.91,1277.7,12777.114,0.861,10.000,0.000,0.500,0.000,0.500,General,0.000,12777.114
 ElectricEquipment Internal Gains Nominal, BUILDING STORY 8 THERMALZONE STRIPMALL STRIP MALL - TYPE 3 ELEC EQUIP 1,RETAILSTRIPMALL TYPE3_EQUIP_SCH,BUILDING STORY 8 THERMALZONE,14837.91,1277.7,51108.457,3.444,40.000,0.000,0.500,0.000,0.500,General,0.000,51108.457
 ElectricEquipment Internal Gains Nominal, BUILDING STORY 5 THERMALZONE FULLSERVICERESTAURANT DINING ELEC EQUIP 1,RESTAURANTSITDOWN BLDG_EQUIP_SCH,BUILDING STORY 5 THERMALZONE,14837.91,3535.4,245087.540,16.518,69.323,0.250,0.300,0.000,0.450,General,0.000,71075.387
 ElectricEquipment Internal Gains Nominal, BUILDING STORY 5 THERMALZONE FULLSERVICERESTAURANT KITCHEN ELEC EQUIP 1,RESTAURANTSITDOWN BLDG_EQUIP_SCH,BUILDING STORY 5 THERMALZONE,14837.91,3535.4,3270361.180,220.406,925.026,0.250,0.300,0.200,0.250,General,0.000,948404.742
 ElectricEquipment Internal Gains Nominal, BUILDING STORY 5 THERMALZONE STRIPMALL STRIP MALL - TYPE 3 ELEC EQUIP 2,RETAILSTRIPMALL TYPE3_EQUIP_SCH,BUILDING STORY 5 THERMALZONE,14837.91,3535.4,12777.114,0.861,3.614,0.000,0.500,0.000,0.500,General,0.000,12777.114
 ElectricEquipment Internal Gains Nominal, BUILDING STORY 3 THERMALZONE FULLSERVICERESTAURANT DINING ELEC EQUIP 2,RESTAURANTSITDOWN BLDG_EQUIP_SCH,BUILDING STORY 3 THERMALZONE,14837.91,11180.0,963394.418,64.928,86.171,0.250,0.300,0.000,0.450,General,0.000,279384.381
 ElectricEquipment Internal Gains Nominal, BUILDING STORY 6 THERMALZONE FULLSERVICERESTAURANT DINING ELEC EQUIP 3,RESTAURANTSITDOWN BLDG_EQUIP_SCH,BUILDING STORY 6 THERMALZONE,14837.91,7096.1,192678.884,12.986,27.153,0.250,0.300,0.000,0.450,General,0.000,55876.876
 ElectricEquipment Internal Gains Nominal, BUILDING STORY 6 THERMALZONE LARGEHOTEL BANQUET ELEC EQUIP 1,HOTELLARGE KITCHEN_ELEC_EQUIP_SCH,BUILDING STORY 6 THERMALZONE,14837.91,7096.1,199662.491,13.456,28.137,0.000,0.500,0.000,0.500,General,0.000,59898.747
 ElectricEquipment Internal Gains Nominal, BUILDING STORY 6 THERMALZONE LARGEHOTEL CAFE ELEC EQUIP 1,HOTELLARGE BLDG_EQUIP_SCH,BUILDING STORY 6 THERMALZONE,14837.91,7096.1,4495.823,0.303,0.634,0.000,0.500,0.000,0.500,General,0.000,4495.823
 ElectricEquipment Internal Gains Nominal, BUILDING STORY 6 THERMALZONE LARGEHOTEL KITCHEN ELEC EQUIP 1,HOTELLARGE KITCHEN_ELEC_EQUIP_SCH,BUILDING STORY 6 THERMALZONE,14837.91,7096.1,232656.147,15.680,32.786,0.200,0.500,0.100,0.200,General,0.000,69796.844
 ElectricEquipment Internal Gains Nominal, BUILDING STORY 6 THERMALZONE LARGEHOTEL LAUNDRY ELEC EQUIP 1,HOTELLARGE BLDG_EQUIP_SCH,BUILDING STORY 6 THERMALZONE,14837.91,7096.1,21415.827,1.443,3.018,0.000,0.500,0.000,0.500,General,0.000,21415.827
 ElectricEquipment Internal Gains Nominal, BUILDING STORY 6 THERMALZONE LARGEHOTEL LOBBY ELEC EQUIP 1,HOTELLARGE BLDG_EQUIP_SCH,BUILDING STORY 6 THERMALZONE,14837.91,7096.1,44315.972,2.987,6.245,0.000,0.500,0.000,0.500,General,0.000,44315.972
 ElectricEquipment Internal Gains Nominal, BUILDING STORY 6 THERMALZONE LARGEHOTEL MECHANICAL ELEC EQUIP 1,HOTELLARGE BLDG_EQUIP_SCH,BUILDING STORY 6 THERMALZONE,14837.91,7096.1,3927.075,0.265,0.553,0.000,0.500,0.000,0.500,General,0.000,3927.075
 ElectricEquipment Internal Gains Nominal, BUILDING STORY 6 THERMALZONE LARGEHOTEL RETAIL ELEC EQUIP 1,HOTELLARGE BLDG_EQUIP_SCH,BUILDING STORY 6 THERMALZONE,14837.91,7096.1,6933.318,0.467,0.977,0.000,0.500,0.000,0.500,General,0.000,6933.318
 ElectricEquipment Internal Gains Nominal, BUILDING STORY 6 THERMALZONE LARGEHOTEL STORAGE ELEC EQUIP 1,HOTELLARGE BLDG_EQUIP_SCH,BUILDING STORY 6 THERMALZONE,14837.91,7096.1,1137.497,7.666E-002,0.160,0.000,0.500,0.000,0.500,General,0.000,1137.497
 ElectricEquipment Internal Gains Nominal, BUILDING STORY 4 THERMALZONE LARGEHOTEL GUESTROOM ELEC EQUIP 1,HOTELLARGE GUESTROOM_EQP_SCH_ADVA,BUILDING STORY 4 THERMALZONE,14837.91,493.1,68864.683,4.641,139.662,0.000,0.500,0.000,0.500,General,0.000,68864.683
 ElectricEquipment Internal Gains Nominal, BUILDING STORY 4 THERMALZONE LARGEHOTEL LOBBY ELEC EQUIP 2,HOTELLARGE BLDG_EQUIP_SCH,BUILDING STORY 4 THERMALZONE,14837.91,493.1,2524.548,0.170,5.120,0.000,0.500,0.000,0.500,General,0.000,2524.548
 ElectricEquipment Internal Gains Nominal, BUILDING STORY 7 THERMALZONE LARGEHOTEL GUESTROOM ELEC EQUIP 2,HOTELLARGE GUESTROOM_EQP_SCH_ADVA,BUILDING STORY 7 THERMALZONE,14837.91,400.5,70347.293,4.741,175.630,0.000,0.500,0.000,0.500,General,0.000,70347.293
! <GasEquipment Internal Gains Nominal>,Name,Schedule Name,Zone Name,Zone Floor Area {m2},# Zone Occupants,Equipment Level {W},Equipment/Floor Area {W/m2},Equipment per person {W/person},Fraction Latent,Fraction Radiant,Fraction Lost,Fraction Convected,End-Use SubCategory,Nominal Minimum Equipment Level {W},Nominal Maximum Equipment Level {W}
 GasEquipment Internal Gains Nominal, BUILDING STORY 5 THERMALZONE FULLSERVICERESTAURANT KITCHEN GAS EQUIP 1,RESTAURANTSITDOWN REST_GAS_EQUIP_SCH,BUILDING STORY 5 THERMALZONE,14837.91,3535.4,5256014.775,354.229,1486.670,0.100,0.200,0.700,0.000,General,0.000,1524244.285
 GasEquipment Internal Gains Nominal, BUILDING STORY 6 THERMALZONE LARGEHOTEL KITCHEN GAS EQUIP 1,HOTELLARGE KITCHEN_GAS_EQUIP_SCH,BUILDING STORY 6 THERMALZONE,14837.91,7096.1,1108002.771,74.674,156.142,0.100,0.200,0.700,0.000,General,0.000,332400.831
 GasEquipment Internal Gains Nominal, BUILDING STORY 6 THERMALZONE LARGEHOTEL LAUNDRY GAS EQUIP 1,HOTELLARGE BLDG_EQUIP_SCH,BUILDING STORY 6 THERMALZONE,14837.91,7096.1,186209.615,12.550,26.241,0.000,0.500,0.000,0.500,General,0.000,186209.615
! <Shadowing/Sun Position Calculations Annual Simulations>, Calculation Method, Value {days}, Allowable Number Figures in Shadow Overlap {}, Polygon Clipping Algorithm, Sky Diffuse Modeling Algorithm, External Shading Calculation Method, Output External Shading Calculation Results, Disable Self-Shading Within Shading Zone Groups, Disable Self-Shading From Shading Zone Groups to Other Zones
Shadowing/Sun Position Calculations Annual Simulations,AverageOverDaysInFrequency,20,15000,SutherlandHodgman,SimpleSkyDiffuseModeling,InternalCalculation,No,No,No
! <Zone/Window Adjacency Daylighting Counts>, Zone Name, Number of Exterior Windows, Number of Exterior Windows in Adjacent Zones
Zone/Window Adjacency Daylighting Counts, BUILDING STORY 1 THERMALZONE,6,0
Zone/Window Adjacency Daylighting Counts, BUILDING STORY 3 THERMALZONE,6,0
Zone/Window Adjacency Daylighting Counts, BUILDING STORY 4 THERMALZONE,6,0
Zone/Window Adjacency Daylighting Counts, BUILDING STORY 5 THERMALZONE,6,0
Zone/Window Adjacency Daylighting Counts, BUILDING STORY 6 THERMALZONE,6,0
Zone/Window Adjacency Daylighting Counts, BUILDING STORY 7 THERMALZONE,6,0
! <Zone/Window Adjacency Daylighting Matrix>, Zone Name, Number of Adjacent Zones with Windows,Adjacent Zone Names - 1st 100 (max)
Zone/Window Adjacency Daylighting Matrix, BUILDING STORY 1 THERMALZONE,0
Zone/Window Adjacency Daylighting Matrix, BUILDING STORY 3 THERMALZONE,0
Zone/Window Adjacency Daylighting Matrix, BUILDING STORY 4 THERMALZONE,0
Zone/Window Adjacency Daylighting Matrix, BUILDING STORY 5 THERMALZONE,0
Zone/Window Adjacency Daylighting Matrix, BUILDING STORY 6 THERMALZONE,0
Zone/Window Adjacency Daylighting Matrix, BUILDING STORY 7 THERMALZONE,0
! <Water Heater Information>,Type,Name,Volume {m3},Maximum Capacity {W},Standard Rated Recovery Efficiency, Standard Rated Energy Factor
! <ZoneInfiltration Airflow Stats Nominal>,Name,Schedule Name,Zone Name, Zone Floor Area {m2}, # Zone Occupants,Design Volume Flow Rate {m3/s},Volume Flow Rate/Floor Area {m3/s-m2},Volume Flow Rate/Exterior Surface Area {m3/s-m2},ACH - Air Changes per Hour,Equation A - Constant Term Coefficient {},Equation B - Temperature Term Coefficient {1/C},Equation C - Velocity Term Coefficient {s/m}, Equation D - Velocity Squared Term Coefficient {s2/m2}
 ZoneInfiltration Airflow Stats Nominal, BUILDING STORY 1 THERMALZONE OFFICE WHOLEBUILDING - MD OFFICE A  - STORY GROUND INFILTRATION,ALWAYS ON DISCRETE,BUILDING STORY 1 THERMALZONE,14837.91,798.6,0.468,3.155E-005,2.193E-004,3.786E-002,0.000,0.000,0.224,0.000
 ZoneInfiltration Airflow Stats Nominal, BUILDING STORY 1 THERMALZONE OFFICE WHOLEBUILDING - MD OFFICE A END_A - STORY GROUND INFILTRATION,ALWAYS ON DISCRETE,BUILDING STORY 1 THERMALZONE,14837.91,798.6,1.825E-002,1.230E-006,8.549E-006,1.476E-003,0.000,0.000,0.224,0.000
 ZoneInfiltration Airflow Stats Nominal, BUILDING STORY 1 THERMALZONE OFFICE WHOLEBUILDING - MD OFFICE A END_B - STORY GROUND INFILTRATION,ALWAYS ON DISCRETE,BUILDING STORY 1 THERMALZONE,14837.91,798.6,1.825E-002,1.230E-006,8.549E-006,1.476E-003,0.000,0.000,0.224,0.000
 ZoneInfiltration Airflow Stats Nominal, BUILDING STORY 1 THERMALZONE OFFICE WHOLEBUILDING - MD OFFICE B END_A - STORY GROUND INFILTRATION,ALWAYS ON DISCRETE,BUILDING STORY 1 THERMALZONE,14837.91,798.6,0.103,6.966E-006,4.841E-005,8.359E-003,0.000,0.000,0.224,0.000
 ZoneInfiltration Airflow Stats Nominal, BUILDING STORY 1 THERMALZONE OFFICE WHOLEBUILDING - MD OFFICE B END_B - STORY GROUND INFILTRATION,ALWAYS ON DISCRETE,BUILDING STORY 1 THERMALZONE,14837.91,798.6,0.103,6.966E-006,4.841E-005,8.359E-003,0.000,0.000,0.224,0.000
 ZoneInfiltration Airflow Stats Nominal, BUILDING STORY 1 THERMALZONE OFFICE WHOLEBUILDING - MD OFFICE C  - STORY GROUND INFILTRATION,ALWAYS ON DISCRETE,BUILDING STORY 1 THERMALZONE,14837.91,798.6,0.468,3.155E-005,2.193E-004,3.786E-002,0.000,0.000,0.224,0.000
 ZoneInfiltration Airflow Stats Nominal, BUILDING STORY 1 THERMALZONE OFFICE WHOLEBUILDING - MD OFFICE C END_A - STORY GROUND INFILTRATION,ALWAYS ON DISCRETE,BUILDING STORY 1 THERMALZONE,14837.91,798.6,1.825E-002,1.230E-006,8.549E-006,1.476E-003,0.000,0.000,0.224,0.000
 ZoneInfiltration Airflow Stats Nominal, BUILDING STORY 1 THERMALZONE OFFICE WHOLEBUILDING - MD OFFICE C END_B - STORY GROUND INFILTRATION,ALWAYS ON DISCRETE,BUILDING STORY 1 THERMALZONE,14837.91,798.6,1.825E-002,1.230E-006,8.549E-006,1.476E-003,0.000,0.000,0.224,0.000
 ZoneInfiltration Airflow Stats Nominal, BUILDING STORY 2 THERMALZONE OFFICE WHOLEBUILDING - MD OFFICE A  - STORY MID INFILTRATION,ALWAYS ON DISCRETE,BUILDING STORY 2 THERMALZONE,14837.91,1181.9,9.729E-002,6.557E-006,4.557E-005,7.868E-003,0.000,0.000,0.224,0.000
 ZoneInfiltration Airflow Stats Nominal, BUILDING STORY 2 THERMALZONE OFFICE WHOLEBUILDING - MD OFFICE C  - STORY MID INFILTRATION,ALWAYS ON DISCRETE,BUILDING STORY 2 THERMALZONE,14837.91,1181.9,9.729E-002,6.557E-006,4.557E-005,7.868E-003,0.000,0.000,0.224,0.000
 ZoneInfiltration Airflow Stats Nominal, BUILDING STORY 2 THERMALZONE STRIPMALL STRIP MALL - TYPE 1 A  - STORY MID INFILTRATION,ALWAYS ON DISCRETE,BUILDING STORY 2 THERMALZONE,14837.91,1181.9,0.234,1.578E-005,1.096E-004,1.893E-002,0.000,0.000,0.224,0.000
 ZoneInfiltration Airflow Stats Nominal, BUILDING STORY 2 THERMALZONE STRIPMALL STRIP MALL - TYPE 1 A END_A - STORY MID INFILTRATION,ALWAYS ON DISCRETE,BUILDING STORY 2 THERMALZONE,14837.91,1181.9,1.825E-002,1.230E-006,8.549E-006,1.476E-003,0.000,0.000,0.224,0.000
 ZoneInfiltration Airflow Stats Nominal, BUILDING STORY 2 THERMALZONE STRIPMALL STRIP MALL - TYPE 1 B END_A - STORY MID INFILTRATION,ALWAYS ON DISCRETE,BUILDING STORY 2 THERMALZONE,14837.91,1181.9,0.103,6.966E-006,4.841E-005,8.359E-003,0.000,0.000,0.224,0.000
 ZoneInfiltration Airflow Stats Nominal, BUILDING STORY 2 THERMALZONE STRIPMALL STRIP MALL - TYPE 1 C  - STORY MID INFILTRATION,ALWAYS ON DISCRETE,BUILDING STORY 2 THERMALZONE,14837.91,1181.9,0.234,1.578E-005,1.096E-004,1.893E-002,0.000,0.000,0.224,0.000
 ZoneInfiltration Airflow Stats Nominal, BUILDING STORY 2 THERMALZONE STRIPMALL STRIP MALL - TYPE 1 C END_A - STORY MID INFILTRATION,ALWAYS ON DISCRETE,BUILDING STORY 2 THERMALZONE,14837.91,1181.9,1.825E-002,1.230E-006,8.549E-006,1.476E-003,0.000,0.000,0.224,0.000
 ZoneInfiltration Airflow Stats Nominal, BUILDING STORY 2 THERMALZONE STRIPMALL STRIP MALL - TYPE 2 A  - STORY MID INFILTRATION,ALWAYS ON DISCRETE,BUILDING STORY 2 THERMALZONE,14837.91,1181.9,0.137,9.220E-006,6.407E-005,1.106E-002,0.000,0.000,0.224,0.000
 ZoneInfiltration Airflow Stats Nominal, BUILDING STORY 2 THERMALZONE STRIPMALL STRIP MALL - TYPE 2 A END_B - STORY MID INFILTRATION,ALWAYS ON DISCRETE,BUILDING STORY 2 THERMALZONE,14837.91,1181.9,1.825E-002,1.230E-006,8.549E-006,1.476E-003,0.000,0.000,0.224,0.000
 ZoneInfiltration Airflow Stats Nominal, BUILDING STORY 2 THERMALZONE STRIPMALL STRIP MALL - TYPE 2 B END_B - STORY MID INFILTRATION,ALWAYS ON DISCRETE,BUILDING STORY 2 THERMALZONE,14837.91,1181.9,0.103,6.966E-006,4.841E-005,8.359E-003,0.000,0.000,0.224,0.000
 ZoneInfiltration Airflow Stats Nominal, BUILDING STORY 2 THERMALZONE STRIPMALL STRIP MALL - TYPE 2 C  - STORY MID INFILTRATION,ALWAYS ON DISCRETE,BUILDING STORY 2 THERMALZONE,14837.91,1181.9,0.137,9.220E-006,6.407E-005,1.106E-002,0.000,0.000,0.224,0.000
 ZoneInfiltration Airflow Stats Nominal, BUILDING STORY 2 THERMALZONE STRIPMALL STRIP MALL - TYPE 2 C END_B - STORY MID INFILTRATION,ALWAYS ON DISCRETE,BUILDING STORY 2 THERMALZONE,14837.91,1181.9,1.825E-002,1.230E-006,8.549E-006,1.476E-003,0.000,0.000,0.224,0.000
 ZoneInfiltration Airflow Stats Nominal, BUILDING STORY 8 THERMALZONE STRIPMALL STRIP MALL - TYPE 2 A  - STORY MID2 INFILTRATION,ALWAYS ON DISCRETE,BUILDING STORY 8 THERMALZONE,14837.91,1277.7,0.701,4.723E-005,4.129E-005,5.668E-002,0.000,0.000,0.224,0.000
 ZoneInfiltration Airflow Stats Nominal, BUILDING STORY 8 THERMALZONE STRIPMALL STRIP MALL - TYPE 2 A END_B - STORY MID2 INFILTRATION,ALWAYS ON DISCRETE,BUILDING STORY 8 THERMALZONE,14837.91,1277.7,0.145,9.779E-006,8.549E-006,1.174E-002,0.000,0.000,0.224,0.000
 ZoneInfiltration Airflow Stats Nominal, BUILDING STORY 8 THERMALZONE STRIPMALL STRIP MALL - TYPE 2 B END_B - STORY MID2 INFILTRATION,ALWAYS ON DISCRETE,BUILDING STORY 8 THERMALZONE,14837.91,1277.7,0.822,5.537E-005,4.841E-005,6.645E-002,0.000,0.000,0.224,0.000
 ZoneInfiltration Airflow Stats Nominal, BUILDING STORY 8 THERMALZONE STRIPMALL STRIP MALL - TYPE 2 C  - STORY MID2 INFILTRATION,ALWAYS ON DISCRETE,BUILDING STORY 8 THERMALZONE,14837.91,1277.7,0.701,4.723E-005,4.129E-005,5.668E-002,0.000,0.000,0.224,0.000
 ZoneInfiltration Airflow Stats Nominal, BUILDING STORY 8 THERMALZONE STRIPMALL STRIP MALL - TYPE 2 C END_B - STORY MID2 INFILTRATION,ALWAYS ON DISCRETE,BUILDING STORY 8 THERMALZONE,14837.91,1277.7,0.145,9.779E-006,8.549E-006,1.174E-002,0.000,0.000,0.224,0.000
 ZoneInfiltration Airflow Stats Nominal, BUILDING STORY 8 THERMALZONE STRIPMALL STRIP MALL - TYPE 3 A  - STORY MID2 INFILTRATION,ALWAYS ON DISCRETE,BUILDING STORY 8 THERMALZONE,14837.91,1277.7,3.021,2.036E-004,1.780E-004,0.244,0.000,0.000,0.224,0.000
 ZoneInfiltration Airflow Stats Nominal, BUILDING STORY 8 THERMALZONE STRIPMALL STRIP MALL - TYPE 3 A END_A - STORY MID2 INFILTRATION,ALWAYS ON DISCRETE,BUILDING STORY 8 THERMALZONE,14837.91,1277.7,0.145,9.779E-006,8.549E-006,1.174E-002,0.000,0.000,0.224,0.000
 ZoneInfiltration Airflow Stats Nominal, BUILDING STORY 8 THERMALZONE STRIPMALL STRIP MALL - TYPE 3 B END_A - STORY MID2 INFILTRATION,ALWAYS ON DISCRETE,BUILDING STORY 8 THERMALZONE,14837.91,1277.7,0.822,5.537E-005,4.841E-005,6.645E-002,0.000,0.000,0.224,0.000
 ZoneInfiltration Airflow Stats Nominal, BUILDING STORY 8 THERMALZONE STRIPMALL STRIP MALL - TYPE 3 C  - STORY MID2 INFILTRATION,ALWAYS ON DISCRETE,BUILDING STORY 8 THERMALZONE,14837.91,1277.7,3.021,2.036E-004,1.780E-004,0.244,0.000,0.000,0.224,0.000
 ZoneInfiltration Airflow Stats Nominal, BUILDING STORY 8 THERMALZONE STRIPMALL STRIP MALL - TYPE 3 C END_A - STORY MID2 INFILTRATION,ALWAYS ON DISCRETE,BUILDING STORY 8 THERMALZONE,14837.91,1277.7,0.145,9.779E-006,8.549E-006,1.174E-002,0.000,0.000,0.224,0.000
 ZoneInfiltration Airflow Stats Nominal, BUILDING STORY 5 THERMALZONE FULLSERVICERESTAURANT DINING A  - STORY MID3 INFILTRATION,ALWAYS ON DISCRETE,BUILDING STORY 5 THERMALZONE,14837.91,3535.4,0.115,7.725E-006,5.369E-005,9.270E-003,0.000,0.000,0.224,0.000
 ZoneInfiltration Airflow Stats Nominal, BUILDING STORY 5 THERMALZONE FULLSERVICERESTAURANT DINING A END_B - STORY MID3 INFILTRATION,ALWAYS ON DISCRETE,BUILDING STORY 5 THERMALZONE,14837.91,3535.4,1.825E-002,1.230E-006,8.549E-006,1.476E-003,0.000,0.000,0.224,0.000
 ZoneInfiltration Airflow Stats Nominal, BUILDING STORY 5 THERMALZONE FULLSERVICERESTAURANT DINING B END_B - STORY MID3 INFILTRATION,ALWAYS ON DISCRETE,BUILDING STORY 5 THERMALZONE,14837.91,3535.4,0.103,6.966E-006,4.841E-005,8.359E-003,0.000,0.000,0.224,0.000
 ZoneInfiltration Airflow Stats Nominal, BUILDING STORY 5 THERMALZONE FULLSERVICERESTAURANT DINING C  - STORY MID3 INFILTRATION,ALWAYS ON DISCRETE,BUILDING STORY 5 THERMALZONE,14837.91,3535.4,0.115,7.725E-006,5.369E-005,9.270E-003,0.000,0.000,0.224,0.000
 ZoneInfiltration Airflow Stats Nominal, BUILDING STORY 5 THERMALZONE FULLSERVICERESTAURANT DINING C END_B - STORY MID3 INFILTRATION,ALWAYS ON DISCRETE,BUILDING STORY 5 THERMALZONE,14837.91,3535.4,1.825E-002,1.230E-006,8.549E-006,1.476E-003,0.000,0.000,0.224,0.000
 ZoneInfiltration Airflow Stats Nominal, BUILDING STORY 5 THERMALZONE FULLSERVICERESTAURANT KITCHEN A  - STORY MID3 INFILTRATION,ALWAYS ON DISCRETE,BUILDING STORY 5 THERMALZONE,14837.91,3535.4,0.256,1.727E-005,1.200E-004,2.073E-002,0.000,0.000,0.224,0.000
 ZoneInfiltration Airflow Stats Nominal, BUILDING STORY 5 THERMALZONE FULLSERVICERESTAURANT KITCHEN A END_A - STORY MID3 INFILTRATION,ALWAYS ON DISCRETE,BUILDING STORY 5 THERMALZONE,14837.91,3535.4,1.825E-002,1.230E-006,8.549E-006,1.476E-003,0.000,0.000,0.224,0.000
 ZoneInfiltration Airflow Stats Nominal, BUILDING STORY 5 THERMALZONE FULLSERVICERESTAURANT KITCHEN B END_A - STORY MID3 INFILTRATION,ALWAYS ON DISCRETE,BUILDING STORY 5 THERMALZONE,14837.91,3535.4,0.103,6.966E-006,4.841E-005,8.359E-003,0.000,0.000,0.224,0.000
 ZoneInfiltration Airflow Stats Nominal, BUILDING STORY 5 THERMALZONE FULLSERVICERESTAURANT KITCHEN C  - STORY MID3 INFILTRATION,ALWAYS ON DISCRETE,BUILDING STORY 5 THERMALZONE,14837.91,3535.4,0.256,1.727E-005,1.200E-004,2.073E-002,0.000,0.000,0.224,0.000
 ZoneInfiltration Airflow Stats Nominal, BUILDING STORY 5 THERMALZONE FULLSERVICERESTAURANT KITCHEN C END_A - STORY MID3 INFILTRATION,ALWAYS ON DISCRETE,BUILDING STORY 5 THERMALZONE,14837.91,3535.4,1.825E-002,1.230E-006,8.549E-006,1.476E-003,0.000,0.000,0.224,0.000
 ZoneInfiltration Airflow Stats Nominal, BUILDING STORY 5 THERMALZONE STRIPMALL STRIP MALL - TYPE 3 A  - STORY MID3 INFILTRATION,ALWAYS ON DISCRETE,BUILDING STORY 5 THERMALZONE,14837.91,3535.4,9.729E-002,6.557E-006,4.557E-005,7.868E-003,0.000,0.000,0.224,0.000
 ZoneInfiltration Airflow Stats Nominal, BUILDING STORY 5 THERMALZONE STRIPMALL STRIP MALL - TYPE 3 C  - STORY MID3 INFILTRATION,ALWAYS ON DISCRETE,BUILDING STORY 5 THERMALZONE,14837.91,3535.4,9.729E-002,6.557E-006,4.557E-005,7.868E-003,0.000,0.000,0.224,0.000
 ZoneInfiltration Airflow Stats Nominal, BUILDING STORY 3 THERMALZONE FULLSERVICERESTAURANT DINING A  - STORY MID4 INFILTRATION,ALWAYS ON DISCRETE,BUILDING STORY 3 THERMALZONE,14837.91,11180.0,3.722,2.508E-004,2.193E-004,0.301,0.000,0.000,0.224,0.000
 ZoneInfiltration Airflow Stats Nominal, BUILDING STORY 3 THERMALZONE FULLSERVICERESTAURANT DINING A END_A - STORY MID4 INFILTRATION,ALWAYS ON DISCRETE,BUILDING STORY 3 THERMALZONE,14837.91,11180.0,0.145,9.779E-006,8.549E-006,1.174E-002,0.000,0.000,0.224,0.000
 ZoneInfiltration Airflow Stats Nominal, BUILDING STORY 3 THERMALZONE FULLSERVICERESTAURANT DINING A END_B - STORY MID4 INFILTRATION,ALWAYS ON DISCRETE,BUILDING STORY 3 THERMALZONE,14837.91,11180.0,0.145,9.779E-006,8.549E-006,1.174E-002,0.000,0.000,0.224,0.000
 ZoneInfiltration Airflow Stats Nominal, BUILDING STORY 3 THERMALZONE FULLSERVICERESTAURANT DINING B END_A - STORY MID4 INFILTRATION,ALWAYS ON DISCRETE,BUILDING STORY 3 THERMALZONE,14837.91,11180.0,0.822,5.537E-005,4.841E-005,6.645E-002,0.000,0.000,0.224,0.000
 ZoneInfiltration Airflow Stats Nominal, BUILDING STORY 3 THERMALZONE FULLSERVICERESTAURANT DINING B END_B - STORY MID4 INFILTRATION,ALWAYS ON DISCRETE,BUILDING STORY 3 THERMALZONE,14837.91,11180.0,0.822,5.537E-005,4.841E-005,6.645E-002,0.000,0.000,0.224,0.000
 ZoneInfiltration Airflow Stats Nominal, BUILDING STORY 3 THERMALZONE FULLSERVICERESTAURANT DINING C  - STORY MID4 INFILTRATION,ALWAYS ON DISCRETE,BUILDING STORY 3 THERMALZONE,14837.91,11180.0,3.722,2.508E-004,2.193E-004,0.301,0.000,0.000,0.224,0.000
 ZoneInfiltration Airflow Stats Nominal, BUILDING STORY 3 THERMALZONE FULLSERVICERESTAURANT DINING C END_A - STORY MID4 INFILTRATION,ALWAYS ON DISCRETE,BUILDING STORY 3 THERMALZONE,14837.91,11180.0,0.145,9.779E-006,8.549E-006,1.174E-002,0.000,0.000,0.224,0.000
 ZoneInfiltration Airflow Stats Nominal, BUILDING STORY 3 THERMALZONE FULLSERVICERESTAURANT DINING C END_B - STORY MID4 INFILTRATION,ALWAYS ON DISCRETE,BUILDING STORY 3 THERMALZONE,14837.91,11180.0,0.145,9.779E-006,8.549E-006,1.174E-002,0.000,0.000,0.224,0.000
 ZoneInfiltration Airflow Stats Nominal, BUILDING STORY 6 THERMALZONE FULLSERVICERESTAURANT DINING A  - STORY MID5 INFILTRATION,ALWAYS ON DISCRETE,BUILDING STORY 6 THERMALZONE,14837.91,7096.1,0.701,4.723E-005,4.129E-005,5.668E-002,0.000,0.000,0.224,0.000
 ZoneInfiltration Airflow Stats Nominal, BUILDING STORY 6 THERMALZONE FULLSERVICERESTAURANT DINING A END_B - STORY MID5 INFILTRATION,ALWAYS ON DISCRETE,BUILDING STORY 6 THERMALZONE,14837.91,7096.1,0.145,9.779E-006,8.549E-006,1.174E-002,0.000,0.000,0.224,0.000
 ZoneInfiltration Airflow Stats Nominal, BUILDING STORY 6 THERMALZONE FULLSERVICERESTAURANT DINING B END_B - STORY MID5 INFILTRATION,ALWAYS ON DISCRETE,BUILDING STORY 6 THERMALZONE,14837.91,7096.1,0.822,5.537E-005,4.841E-005,6.645E-002,0.000,0.000,0.224,0.000
 ZoneInfiltration Airflow Stats Nominal, BUILDING STORY 6 THERMALZONE FULLSERVICERESTAURANT DINING C  - STORY MID5 INFILTRATION,ALWAYS ON DISCRETE,BUILDING STORY 6 THERMALZONE,14837.91,7096.1,0.701,4.723E-005,4.129E-005,5.668E-002,0.000,0.000,0.224,0.000
 ZoneInfiltration Airflow Stats Nominal, BUILDING STORY 6 THERMALZONE FULLSERVICERESTAURANT DINING C END_B - STORY MID5 INFILTRATION,ALWAYS ON DISCRETE,BUILDING STORY 6 THERMALZONE,14837.91,7096.1,0.145,9.779E-006,8.549E-006,1.174E-002,0.000,0.000,0.224,0.000
 ZoneInfiltration Airflow Stats Nominal, BUILDING STORY 6 THERMALZONE LARGEHOTEL BANQUET A  - STORY MID5 INFILTRATION,ALWAYS ON DISCRETE,BUILDING STORY 6 THERMALZONE,14837.91,7096.1,0.767,5.171E-005,4.520E-005,6.205E-002,0.000,0.000,0.224,0.000
 ZoneInfiltration Airflow Stats Nominal, BUILDING STORY 6 THERMALZONE LARGEHOTEL BANQUET C  - STORY MID5 INFILTRATION,ALWAYS ON DISCRETE,BUILDING STORY 6 THERMALZONE,14837.91,7096.1,0.767,5.171E-005,4.520E-005,6.205E-002,0.000,0.000,0.224,0.000
 ZoneInfiltration Airflow Stats Nominal, BUILDING STORY 6 THERMALZONE LARGEHOTEL CAFE A  - STORY MID5 INFILTRATION,ALWAYS ON DISCRETE,BUILDING STORY 6 THERMALZONE,14837.91,7096.1,0.218,1.467E-005,1.283E-005,1.761E-002,0.000,0.000,0.224,0.000
 ZoneInfiltration Airflow Stats Nominal, BUILDING STORY 6 THERMALZONE LARGEHOTEL CAFE C  - STORY MID5 INFILTRATION,ALWAYS ON DISCRETE,BUILDING STORY 6 THERMALZONE,14837.91,7096.1,0.218,1.467E-005,1.283E-005,1.761E-002,0.000,0.000,0.224,0.000
 ZoneInfiltration Airflow Stats Nominal, BUILDING STORY 6 THERMALZONE LARGEHOTEL KITCHEN A  - STORY MID5 INFILTRATION,ALWAYS ON DISCRETE,BUILDING STORY 6 THERMALZONE,14837.91,7096.1,0.119,8.043E-006,7.031E-006,9.652E-003,0.000,0.000,0.224,0.000
 ZoneInfiltration Airflow Stats Nominal, BUILDING STORY 6 THERMALZONE LARGEHOTEL KITCHEN C  - STORY MID5 INFILTRATION,ALWAYS ON DISCRETE,BUILDING STORY 6 THERMALZONE,14837.91,7096.1,0.119,8.043E-006,7.031E-006,9.652E-003,0.000,0.000,0.224,0.000
 ZoneInfiltration Airflow Stats Nominal, BUILDING STORY 6 THERMALZONE LARGEHOTEL LAUNDRY A  - STORY MID5 INFILTRATION,ALWAYS ON DISCRETE,BUILDING STORY 6 THERMALZONE,14837.91,7096.1,9.049E-002,6.099E-006,5.331E-006,7.318E-003,0.000,0.000,0.224,0.000
 ZoneInfiltration Airflow Stats Nominal, BUILDING STORY 6 THERMALZONE LARGEHOTEL LAUNDRY C  - STORY MID5 INFILTRATION,ALWAYS ON DISCRETE,BUILDING STORY 6 THERMALZONE,14837.91,7096.1,9.049E-002,6.099E-006,5.331E-006,7.318E-003,0.000,0.000,0.224,0.000
 ZoneInfiltration Airflow Stats Nominal, BUILDING STORY 6 THERMALZONE LARGEHOTEL LOBBY A  - STORY MID5 INFILTRATION,ALWAYS ON DISCRETE,BUILDING STORY 6 THERMALZONE,14837.91,7096.1,1.358,9.153E-005,8.001E-005,0.110,0.000,0.000,0.224,0.000
 ZoneInfiltration Airflow Stats Nominal, BUILDING STORY 6 THERMALZONE LARGEHOTEL LOBBY A END_A - STORY MID5 INFILTRATION,ALWAYS ON DISCRETE,BUILDING STORY 6 THERMALZONE,14837.91,7096.1,0.145,9.779E-006,8.549E-006,1.174E-002,0.000,0.000,0.224,0.000
 ZoneInfiltration Airflow Stats Nominal, BUILDING STORY 6 THERMALZONE LARGEHOTEL LOBBY B END_A - STORY MID5 INFILTRATION,ALWAYS ON DISCRETE,BUILDING STORY 6 THERMALZONE,14837.91,7096.1,0.822,5.537E-005,4.841E-005,6.645E-002,0.000,0.000,0.224,0.000
 ZoneInfiltration Airflow Stats Nominal, BUILDING STORY 6 THERMALZONE LARGEHOTEL LOBBY C  - STORY MID5 INFILTRATION,ALWAYS ON DISCRETE,BUILDING STORY 6 THERMALZONE,14837.91,7096.1,1.358,9.153E-005,8.001E-005,0.110,0.000,0.000,0.224,0.000
 ZoneInfiltration Airflow Stats Nominal, BUILDING STORY 6 THERMALZONE LARGEHOTEL LOBBY C END_A - STORY MID5 INFILTRATION,ALWAYS ON DISCRETE,BUILDING STORY 6 THERMALZONE,14837.91,7096.1,0.145,9.779E-006,8.549E-006,1.174E-002,0.000,0.000,0.224,0.000
 ZoneInfiltration Airflow Stats Nominal, BUILDING STORY 6 THERMALZONE LARGEHOTEL MECHANICAL A  - STORY MID5 INFILTRATION,ALWAYS ON DISCRETE,BUILDING STORY 6 THERMALZONE,14837.91,7096.1,0.190,1.282E-005,1.120E-005,1.538E-002,0.000,0.000,0.224,0.000
 ZoneInfiltration Airflow Stats Nominal, BUILDING STORY 6 THERMALZONE LARGEHOTEL MECHANICAL C  - STORY MID5 INFILTRATION,ALWAYS ON DISCRETE,BUILDING STORY 6 THERMALZONE,14837.91,7096.1,0.190,1.282E-005,1.120E-005,1.538E-002,0.000,0.000,0.224,0.000
 ZoneInfiltration Airflow Stats Nominal, BUILDING STORY 6 THERMALZONE LARGEHOTEL RETAIL A  - STORY MID5 INFILTRATION,ALWAYS ON DISCRETE,BUILDING STORY 6 THERMALZONE,14837.91,7096.1,0.168,1.131E-005,9.890E-006,1.358E-002,0.000,0.000,0.224,0.000
 ZoneInfiltration Airflow Stats Nominal, BUILDING STORY 6 THERMALZONE LARGEHOTEL RETAIL C  - STORY MID5 INFILTRATION,ALWAYS ON DISCRETE,BUILDING STORY 6 THERMALZONE,14837.91,7096.1,0.168,1.131E-005,9.890E-006,1.358E-002,0.000,0.000,0.224,0.000
 ZoneInfiltration Airflow Stats Nominal, BUILDING STORY 6 THERMALZONE LARGEHOTEL STORAGE A  - STORY MID5 INFILTRATION,ALWAYS ON DISCRETE,BUILDING STORY 6 THERMALZONE,14837.91,7096.1,0.110,7.424E-006,6.490E-006,8.909E-003,0.000,0.000,0.224,0.000
 ZoneInfiltration Airflow Stats Nominal, BUILDING STORY 6 THERMALZONE LARGEHOTEL STORAGE C  - STORY MID5 INFILTRATION,ALWAYS ON DISCRETE,BUILDING STORY 6 THERMALZONE,14837.91,7096.1,0.110,7.424E-006,6.490E-006,8.909E-003,0.000,0.000,0.224,0.000
 ZoneInfiltration Airflow Stats Nominal, BUILDING STORY 4 THERMALZONE LARGEHOTEL CORRIDOR B END_A - STORY MID6 INFILTRATION,ALWAYS ON DISCRETE,BUILDING STORY 4 THERMALZONE,14837.91,493.1,3.618E-002,2.438E-006,1.695E-005,2.926E-003,0.000,0.000,0.224,0.000
 ZoneInfiltration Airflow Stats Nominal, BUILDING STORY 4 THERMALZONE LARGEHOTEL GUESTROOM A  - STORY MID6 INFILTRATION,ALWAYS ON DISCRETE,BUILDING STORY 4 THERMALZONE,14837.91,493.1,0.467,3.148E-005,2.188E-004,3.777E-002,0.000,0.000,0.224,0.000
 ZoneInfiltration Airflow Stats Nominal, BUILDING STORY 4 THERMALZONE LARGEHOTEL GUESTROOM A END_A - STORY MID6 INFILTRATION,ALWAYS ON DISCRETE,BUILDING STORY 4 THERMALZONE,14837.91,493.1,5.184E-002,3.494E-006,2.428E-005,4.193E-003,0.000,0.000,0.224,0.000
 ZoneInfiltration Airflow Stats Nominal, BUILDING STORY 4 THERMALZONE LARGEHOTEL GUESTROOM C  - STORY MID6 INFILTRATION,ALWAYS ON DISCRETE,BUILDING STORY 4 THERMALZONE,14837.91,493.1,0.467,3.148E-005,2.188E-004,3.777E-002,0.000,0.000,0.224,0.000
 ZoneInfiltration Airflow Stats Nominal, BUILDING STORY 4 THERMALZONE LARGEHOTEL GUESTROOM C END_A - STORY MID6 INFILTRATION,ALWAYS ON DISCRETE,BUILDING STORY 4 THERMALZONE,14837.91,493.1,5.184E-002,3.494E-006,2.428E-005,4.193E-003,0.000,0.000,0.224,0.000
 ZoneInfiltration Airflow Stats Nominal, BUILDING STORY 4 THERMALZONE LARGEHOTEL LOBBY A  - STORY MID6 INFILTRATION,ALWAYS ON DISCRETE,BUILDING STORY 4 THERMALZONE,14837.91,493.1,1.938E-002,1.306E-006,9.076E-006,1.567E-003,0.000,0.000,0.224,0.000
 ZoneInfiltration Airflow Stats Nominal, BUILDING STORY 4 THERMALZONE LARGEHOTEL LOBBY B  - STORY MID6 INFILTRATION,ALWAYS ON DISCRETE,BUILDING STORY 4 THERMALZONE,14837.91,493.1,0.103,6.966E-006,4.841E-005,8.359E-003,0.000,0.000,0.224,0.000
 ZoneInfiltration Airflow Stats Nominal, BUILDING STORY 4 THERMALZONE LARGEHOTEL LOBBY C  - STORY MID6 INFILTRATION,ALWAYS ON DISCRETE,BUILDING STORY 4 THERMALZONE,14837.91,493.1,1.938E-002,1.306E-006,9.076E-006,1.567E-003,0.000,0.000,0.224,0.000
 ZoneInfiltration Airflow Stats Nominal, BUILDING STORY 7 THERMALZONE LARGEHOTEL CORRIDOR B END_A - STORY TOP INFILTRATION,ALWAYS ON DISCRETE,BUILDING STORY 7 THERMALZONE,14837.91,400.5,4.022E-003,2.711E-007,1.884E-006,3.253E-004,0.000,0.000,0.224,0.000
 ZoneInfiltration Airflow Stats Nominal, BUILDING STORY 7 THERMALZONE LARGEHOTEL CORRIDOR B END_B - STORY TOP INFILTRATION,ALWAYS ON DISCRETE,BUILDING STORY 7 THERMALZONE,14837.91,400.5,4.022E-003,2.711E-007,1.884E-006,3.253E-004,0.000,0.000,0.224,0.000
 ZoneInfiltration Airflow Stats Nominal, BUILDING STORY 7 THERMALZONE LARGEHOTEL GUESTROOM A  - STORY TOP INFILTRATION,ALWAYS ON DISCRETE,BUILDING STORY 7 THERMALZONE,14837.91,400.5,5.205E-002,3.508E-006,2.438E-005,4.210E-003,0.000,0.000,0.224,0.000
 ZoneInfiltration Airflow Stats Nominal, BUILDING STORY 7 THERMALZONE LARGEHOTEL GUESTROOM A END_A - STORY TOP INFILTRATION,ALWAYS ON DISCRETE,BUILDING STORY 7 THERMALZONE,14837.91,400.5,5.763E-003,3.884E-007,2.699E-006,4.661E-004,0.000,0.000,0.224,0.000
 ZoneInfiltration Airflow Stats Nominal, BUILDING STORY 7 THERMALZONE LARGEHOTEL GUESTROOM A END_B - STORY TOP INFILTRATION,ALWAYS ON DISCRETE,BUILDING STORY 7 THERMALZONE,14837.91,400.5,5.763E-003,3.884E-007,2.699E-006,4.661E-004,0.000,0.000,0.224,0.000
 ZoneInfiltration Airflow Stats Nominal, BUILDING STORY 7 THERMALZONE LARGEHOTEL GUESTROOM C  - STORY TOP INFILTRATION,ALWAYS ON DISCRETE,BUILDING STORY 7 THERMALZONE,14837.91,400.5,5.205E-002,3.508E-006,2.438E-005,4.210E-003,0.000,0.000,0.224,0.000
 ZoneInfiltration Airflow Stats Nominal, BUILDING STORY 7 THERMALZONE LARGEHOTEL GUESTROOM C END_A - STORY TOP INFILTRATION,ALWAYS ON DISCRETE,BUILDING STORY 7 THERMALZONE,14837.91,400.5,5.763E-003,3.884E-007,2.699E-006,4.661E-004,0.000,0.000,0.224,0.000
 ZoneInfiltration Airflow Stats Nominal, BUILDING STORY 7 THERMALZONE LARGEHOTEL GUESTROOM C END_B - STORY TOP INFILTRATION,ALWAYS ON DISCRETE,BUILDING STORY 7 THERMALZONE,14837.91,400.5,5.763E-003,3.884E-007,2.699E-006,4.661E-004,0.000,0.000,0.224,0.000
! <AirFlow Model>, Simple
 AirFlow Model, Simple
! <RoomAir Model>, Zone Name, Mixing/Mundt/UCSDDV/UCSDCV/UCSDUFI/UCSDUFE/User Defined
RoomAir Model,BUILDING STORY 1 THERMALZONE,Mixing/Well-Stirred
RoomAir Model,BUILDING STORY 2 THERMALZONE,Mixing/Well-Stirred
RoomAir Model,BUILDING STORY 3 THERMALZONE,Mixing/Well-Stirred
RoomAir Model,BUILDING STORY 4 THERMALZONE,Mixing/Well-Stirred
RoomAir Model,BUILDING STORY 5 THERMALZONE,Mixing/Well-Stirred
RoomAir Model,BUILDING STORY 6 THERMALZONE,Mixing/Well-Stirred
RoomAir Model,BUILDING STORY 7 THERMALZONE,Mixing/Well-Stirred
RoomAir Model,BUILDING STORY 8 THERMALZONE,Mixing/Well-Stirred
! <AirflowNetwork Model:Control>, No Multizone or Distribution/Multizone with Distribution/Multizone without Distribution/Multizone with Distribution only during Fan Operation
AirflowNetwork Model:Control,NoMultizoneOrDistribution
! <Zone Volume Capacitance Multiplier>, Sensible Heat Capacity Multiplier, Moisture Capacity Multiplier, Carbon Dioxide Capacity Multiplier, Generic Contaminant Capacity Multiplier
Zone Volume Capacitance Multiplier,   1.000 ,   1.000,   1.000,   1.000
! <Load Timesteps in Zone Design Calculation Averaging Window>, Value
 Load Timesteps in Zone Design Calculation Averaging Window,    1
! <Heating Sizing Factor Information>, Sizing Factor ID, Value
 Heating Sizing Factor Information, Global,   1.2500    
 Heating Sizing Factor Information, Zone BUILDING STORY 1 THERMALZONE,   1.2500    
 Heating Sizing Factor Information, Zone BUILDING STORY 2 THERMALZONE,   1.2500    
 Heating Sizing Factor Information, Zone BUILDING STORY 3 THERMALZONE,   1.2500    
 Heating Sizing Factor Information, Zone BUILDING STORY 4 THERMALZONE,   1.2500    
 Heating Sizing Factor Information, Zone BUILDING STORY 5 THERMALZONE,   1.2500    
 Heating Sizing Factor Information, Zone BUILDING STORY 6 THERMALZONE,   1.2500    
 Heating Sizing Factor Information, Zone BUILDING STORY 7 THERMALZONE,   1.2500    
 Heating Sizing Factor Information, Zone BUILDING STORY 8 THERMALZONE,   1.2500    
! <Cooling Sizing Factor Information>, Sizing Factor ID, Value
 Cooling Sizing Factor Information, Global,   1.1500    
 Cooling Sizing Factor Information, Zone BUILDING STORY 1 THERMALZONE,   1.1500    
 Cooling Sizing Factor Information, Zone BUILDING STORY 2 THERMALZONE,   1.1500    
 Cooling Sizing Factor Information, Zone BUILDING STORY 3 THERMALZONE,   1.1500    
 Cooling Sizing Factor Information, Zone BUILDING STORY 4 THERMALZONE,   1.1500    
 Cooling Sizing Factor Information, Zone BUILDING STORY 5 THERMALZONE,   1.1500    
 Cooling Sizing Factor Information, Zone BUILDING STORY 6 THERMALZONE,   1.1500    
 Cooling Sizing Factor Information, Zone BUILDING STORY 7 THERMALZONE,   1.1500    
 Cooling Sizing Factor Information, Zone BUILDING STORY 8 THERMALZONE,   1.1500    
! <Sky Daylight Factors>, MonthAndDay, Zone Name, Window Name, Daylight Fac: Ref Pt #1, Daylight Fac: Ref Pt #2
 Clear Sky Daylight Factors,07/21,BUILDING STORY 1 THERMALZONE,SUB SURFACE 6,2.6583E-004,2.6583E-004
 Clear Turbid Sky Daylight Factors,07/21,BUILDING STORY 1 THERMALZONE,SUB SURFACE 6,2.3906E-004,2.3906E-004
 Intermediate Sky Daylight Factors,07/21,BUILDING STORY 1 THERMALZONE,SUB SURFACE 6,2.0629E-004,2.0629E-004
 Overcast Sky Daylight Factors,07/21,BUILDING STORY 1 THERMALZONE,SUB SURFACE 6,2.4969E-004,2.4969E-004
 Clear Sky Daylight Factors,07/21,BUILDING STORY 1 THERMALZONE,SUB SURFACE 1,0.0000,0.0000
 Clear Turbid Sky Daylight Factors,07/21,BUILDING STORY 1 THERMALZONE,SUB SURFACE 1,0.0000,0.0000
 Intermediate Sky Daylight Factors,07/21,BUILDING STORY 1 THERMALZONE,SUB SURFACE 1,0.0000,0.0000
 Overcast Sky Daylight Factors,07/21,BUILDING STORY 1 THERMALZONE,SUB SURFACE 1,0.0000,0.0000
 Clear Sky Daylight Factors,07/21,BUILDING STORY 1 THERMALZONE,SUB SURFACE 4,8.2145E-005,8.2145E-005
 Clear Turbid Sky Daylight Factors,07/21,BUILDING STORY 1 THERMALZONE,SUB SURFACE 4,7.5976E-005,7.5976E-005
 Intermediate Sky Daylight Factors,07/21,BUILDING STORY 1 THERMALZONE,SUB SURFACE 4,6.6044E-005,6.6044E-005
 Overcast Sky Daylight Factors,07/21,BUILDING STORY 1 THERMALZONE,SUB SURFACE 4,6.9373E-005,6.9373E-005
 Clear Sky Daylight Factors,07/21,BUILDING STORY 1 THERMALZONE,SUB SURFACE 5,0.0000,0.0000
 Clear Turbid Sky Daylight Factors,07/21,BUILDING STORY 1 THERMALZONE,SUB SURFACE 5,0.0000,0.0000
 Intermediate Sky Daylight Factors,07/21,BUILDING STORY 1 THERMALZONE,SUB SURFACE 5,0.0000,0.0000
 Overcast Sky Daylight Factors,07/21,BUILDING STORY 1 THERMALZONE,SUB SURFACE 5,0.0000,0.0000
 Clear Sky Daylight Factors,07/21,BUILDING STORY 1 THERMALZONE,SUB SURFACE 2,2.0388E-004,2.0388E-004
 Clear Turbid Sky Daylight Factors,07/21,BUILDING STORY 1 THERMALZONE,SUB SURFACE 2,1.9037E-004,1.9037E-004
 Intermediate Sky Daylight Factors,07/21,BUILDING STORY 1 THERMALZONE,SUB SURFACE 2,1.6927E-004,1.6927E-004
 Overcast Sky Daylight Factors,07/21,BUILDING STORY 1 THERMALZONE,SUB SURFACE 2,1.7541E-004,1.7541E-004
 Clear Sky Daylight Factors,07/21,BUILDING STORY 1 THERMALZONE,SUB SURFACE 3,0.0000,0.0000
 Clear Turbid Sky Daylight Factors,07/21,BUILDING STORY 1 THERMALZONE,SUB SURFACE 3,0.0000,0.0000
 Intermediate Sky Daylight Factors,07/21,BUILDING STORY 1 THERMALZONE,SUB SURFACE 3,0.0000,0.0000
 Overcast Sky Daylight Factors,07/21,BUILDING STORY 1 THERMALZONE,SUB SURFACE 3,0.0000,0.0000
 Clear Sky Daylight Factors,07/21,BUILDING STORY 3 THERMALZONE,SUB SURFACE 17,2.8041E-004,2.8041E-004
 Clear Turbid Sky Daylight Factors,07/21,BUILDING STORY 3 THERMALZONE,SUB SURFACE 17,2.5120E-004,2.5120E-004
 Intermediate Sky Daylight Factors,07/21,BUILDING STORY 3 THERMALZONE,SUB SURFACE 17,2.1544E-004,2.1544E-004
 Overcast Sky Daylight Factors,07/21,BUILDING STORY 3 THERMALZONE,SUB SURFACE 17,2.6280E-004,2.6280E-004
 Clear Sky Daylight Factors,07/21,BUILDING STORY 3 THERMALZONE,SUB SURFACE 13,0.0000,0.0000
 Clear Turbid Sky Daylight Factors,07/21,BUILDING STORY 3 THERMALZONE,SUB SURFACE 13,0.0000,0.0000
 Intermediate Sky Daylight Factors,07/21,BUILDING STORY 3 THERMALZONE,SUB SURFACE 13,0.0000,0.0000
 Overcast Sky Daylight Factors,07/21,BUILDING STORY 3 THERMALZONE,SUB SURFACE 13,0.0000,0.0000
 Clear Sky Daylight Factors,07/21,BUILDING STORY 3 THERMALZONE,SUB SURFACE 16,9.5021E-005,8.8074E-005
 Clear Turbid Sky Daylight Factors,07/21,BUILDING STORY 3 THERMALZONE,SUB SURFACE 16,8.6648E-005,8.1208E-005
 Intermediate Sky Daylight Factors,07/21,BUILDING STORY 3 THERMALZONE,SUB SURFACE 16,7.2909E-005,7.0155E-005
 Overcast Sky Daylight Factors,07/21,BUILDING STORY 3 THERMALZONE,SUB SURFACE 16,7.6755E-005,7.3860E-005
 Clear Sky Daylight Factors,07/21,BUILDING STORY 3 THERMALZONE,SUB SURFACE 14,0.0000,0.0000
 Clear Turbid Sky Daylight Factors,07/21,BUILDING STORY 3 THERMALZONE,SUB SURFACE 14,0.0000,0.0000
 Intermediate Sky Daylight Factors,07/21,BUILDING STORY 3 THERMALZONE,SUB SURFACE 14,0.0000,0.0000
 Overcast Sky Daylight Factors,07/21,BUILDING STORY 3 THERMALZONE,SUB SURFACE 14,0.0000,0.0000
 Clear Sky Daylight Factors,07/21,BUILDING STORY 3 THERMALZONE,SUB SURFACE 15,2.1642E-004,2.1642E-004
 Clear Turbid Sky Daylight Factors,07/21,BUILDING STORY 3 THERMALZONE,SUB SURFACE 15,2.0156E-004,2.0156E-004
 Intermediate Sky Daylight Factors,07/21,BUILDING STORY 3 THERMALZONE,SUB SURFACE 15,1.7837E-004,1.7837E-004
 Overcast Sky Daylight Factors,07/21,BUILDING STORY 3 THERMALZONE,SUB SURFACE 15,1.8511E-004,1.8511E-004
 Clear Sky Daylight Factors,07/21,BUILDING STORY 3 THERMALZONE,SUB SURFACE 18,0.0000,0.0000
 Clear Turbid Sky Daylight Factors,07/21,BUILDING STORY 3 THERMALZONE,SUB SURFACE 18,0.0000,0.0000
 Intermediate Sky Daylight Factors,07/21,BUILDING STORY 3 THERMALZONE,SUB SURFACE 18,0.0000,0.0000
 Overcast Sky Daylight Factors,07/21,BUILDING STORY 3 THERMALZONE,SUB SURFACE 18,0.0000,0.0000
 Clear Sky Daylight Factors,07/21,BUILDING STORY 4 THERMALZONE,SUB SURFACE 21,2.8041E-004,2.8041E-004
 Clear Turbid Sky Daylight Factors,07/21,BUILDING STORY 4 THERMALZONE,SUB SURFACE 21,2.5120E-004,2.5120E-004
 Intermediate Sky Daylight Factors,07/21,BUILDING STORY 4 THERMALZONE,SUB SURFACE 21,2.1544E-004,2.1544E-004
 Overcast Sky Daylight Factors,07/21,BUILDING STORY 4 THERMALZONE,SUB SURFACE 21,2.6280E-004,2.6280E-004
 Clear Sky Daylight Factors,07/21,BUILDING STORY 4 THERMALZONE,SUB SURFACE 19,0.0000,0.0000
 Clear Turbid Sky Daylight Factors,07/21,BUILDING STORY 4 THERMALZONE,SUB SURFACE 19,0.0000,0.0000
 Intermediate Sky Daylight Factors,07/21,BUILDING STORY 4 THERMALZONE,SUB SURFACE 19,0.0000,0.0000
 Overcast Sky Daylight Factors,07/21,BUILDING STORY 4 THERMALZONE,SUB SURFACE 19,0.0000,0.0000
 Clear Sky Daylight Factors,07/21,BUILDING STORY 4 THERMALZONE,SUB SURFACE 23,9.5021E-005,8.8074E-005
 Clear Turbid Sky Daylight Factors,07/21,BUILDING STORY 4 THERMALZONE,SUB SURFACE 23,8.6648E-005,8.1208E-005
 Intermediate Sky Daylight Factors,07/21,BUILDING STORY 4 THERMALZONE,SUB SURFACE 23,7.2909E-005,7.0155E-005
 Overcast Sky Daylight Factors,07/21,BUILDING STORY 4 THERMALZONE,SUB SURFACE 23,7.6755E-005,7.3860E-005
 Clear Sky Daylight Factors,07/21,BUILDING STORY 4 THERMALZONE,SUB SURFACE 22,0.0000,0.0000
 Clear Turbid Sky Daylight Factors,07/21,BUILDING STORY 4 THERMALZONE,SUB SURFACE 22,0.0000,0.0000
 Intermediate Sky Daylight Factors,07/21,BUILDING STORY 4 THERMALZONE,SUB SURFACE 22,0.0000,0.0000
 Overcast Sky Daylight Factors,07/21,BUILDING STORY 4 THERMALZONE,SUB SURFACE 22,0.0000,0.0000
 Clear Sky Daylight Factors,07/21,BUILDING STORY 4 THERMALZONE,SUB SURFACE 20,2.1642E-004,2.1642E-004
 Clear Turbid Sky Daylight Factors,07/21,BUILDING STORY 4 THERMALZONE,SUB SURFACE 20,2.0156E-004,2.0156E-004
 Intermediate Sky Daylight Factors,07/21,BUILDING STORY 4 THERMALZONE,SUB SURFACE 20,1.7837E-004,1.7837E-004
 Overcast Sky Daylight Factors,07/21,BUILDING STORY 4 THERMALZONE,SUB SURFACE 20,1.8511E-004,1.8511E-004
 Clear Sky Daylight Factors,07/21,BUILDING STORY 4 THERMALZONE,SUB SURFACE 24,0.0000,0.0000
 Clear Turbid Sky Daylight Factors,07/21,BUILDING STORY 4 THERMALZONE,SUB SURFACE 24,0.0000,0.0000
 Intermediate Sky Daylight Factors,07/21,BUILDING STORY 4 THERMALZONE,SUB SURFACE 24,0.0000,0.0000
 Overcast Sky Daylight Factors,07/21,BUILDING STORY 4 THERMALZONE,SUB SURFACE 24,0.0000,0.0000
 Clear Sky Daylight Factors,07/21,BUILDING STORY 5 THERMALZONE,SUB SURFACE 28,2.8041E-004,2.8041E-004
 Clear Turbid Sky Daylight Factors,07/21,BUILDING STORY 5 THERMALZONE,SUB SURFACE 28,2.5120E-004,2.5120E-004
 Intermediate Sky Daylight Factors,07/21,BUILDING STORY 5 THERMALZONE,SUB SURFACE 28,2.1544E-004,2.1544E-004
 Overcast Sky Daylight Factors,07/21,BUILDING STORY 5 THERMALZONE,SUB SURFACE 28,2.6280E-004,2.6280E-004
 Clear Sky Daylight Factors,07/21,BUILDING STORY 5 THERMALZONE,SUB SURFACE 29,0.0000,0.0000
 Clear Turbid Sky Daylight Factors,07/21,BUILDING STORY 5 THERMALZONE,SUB SURFACE 29,0.0000,0.0000
 Intermediate Sky Daylight Factors,07/21,BUILDING STORY 5 THERMALZONE,SUB SURFACE 29,0.0000,0.0000
 Overcast Sky Daylight Factors,07/21,BUILDING STORY 5 THERMALZONE,SUB SURFACE 29,0.0000,0.0000
 Clear Sky Daylight Factors,07/21,BUILDING STORY 5 THERMALZONE,SUB SURFACE 27,8.8074E-005,8.8074E-005
 Clear Turbid Sky Daylight Factors,07/21,BUILDING STORY 5 THERMALZONE,SUB SURFACE 27,8.1208E-005,8.1208E-005
 Intermediate Sky Daylight Factors,07/21,BUILDING STORY 5 THERMALZONE,SUB SURFACE 27,7.0155E-005,7.0155E-005
 Overcast Sky Daylight Factors,07/21,BUILDING STORY 5 THERMALZONE,SUB SURFACE 27,7.3860E-005,7.3860E-005
 Clear Sky Daylight Factors,07/21,BUILDING STORY 5 THERMALZONE,SUB SURFACE 30,0.0000,0.0000
 Clear Turbid Sky Daylight Factors,07/21,BUILDING STORY 5 THERMALZONE,SUB SURFACE 30,0.0000,0.0000
 Intermediate Sky Daylight Factors,07/21,BUILDING STORY 5 THERMALZONE,SUB SURFACE 30,0.0000,0.0000
 Overcast Sky Daylight Factors,07/21,BUILDING STORY 5 THERMALZONE,SUB SURFACE 30,0.0000,0.0000
 Clear Sky Daylight Factors,07/21,BUILDING STORY 5 THERMALZONE,SUB SURFACE 25,2.2177E-004,2.2177E-004
 Clear Turbid Sky Daylight Factors,07/21,BUILDING STORY 5 THERMALZONE,SUB SURFACE 25,2.0570E-004,2.0570E-004
 Intermediate Sky Daylight Factors,07/21,BUILDING STORY 5 THERMALZONE,SUB SURFACE 25,1.8037E-004,1.8037E-004
 Overcast Sky Daylight Factors,07/21,BUILDING STORY 5 THERMALZONE,SUB SURFACE 25,1.8825E-004,1.8825E-004
 Clear Sky Daylight Factors,07/21,BUILDING STORY 5 THERMALZONE,SUB SURFACE 26,0.0000,0.0000
 Clear Turbid Sky Daylight Factors,07/21,BUILDING STORY 5 THERMALZONE,SUB SURFACE 26,0.0000,0.0000
 Intermediate Sky Daylight Factors,07/21,BUILDING STORY 5 THERMALZONE,SUB SURFACE 26,0.0000,0.0000
 Overcast Sky Daylight Factors,07/21,BUILDING STORY 5 THERMALZONE,SUB SURFACE 26,0.0000,0.0000
 Clear Sky Daylight Factors,07/21,BUILDING STORY 6 THERMALZONE,SUB SURFACE 31,2.8041E-004,2.8041E-004
 Clear Turbid Sky Daylight Factors,07/21,BUILDING STORY 6 THERMALZONE,SUB SURFACE 31,2.5120E-004,2.5120E-004
 Intermediate Sky Daylight Factors,07/21,BUILDING STORY 6 THERMALZONE,SUB SURFACE 31,2.1544E-004,2.1544E-004
 Overcast Sky Daylight Factors,07/21,BUILDING STORY 6 THERMALZONE,SUB SURFACE 31,2.6280E-004,2.6280E-004
 Clear Sky Daylight Factors,07/21,BUILDING STORY 6 THERMALZONE,SUB SURFACE 32,0.0000,0.0000
 Clear Turbid Sky Daylight Factors,07/21,BUILDING STORY 6 THERMALZONE,SUB SURFACE 32,0.0000,0.0000
 Intermediate Sky Daylight Factors,07/21,BUILDING STORY 6 THERMALZONE,SUB SURFACE 32,0.0000,0.0000
 Overcast Sky Daylight Factors,07/21,BUILDING STORY 6 THERMALZONE,SUB SURFACE 32,0.0000,0.0000
 Clear Sky Daylight Factors,07/21,BUILDING STORY 6 THERMALZONE,SUB SURFACE 33,8.8074E-005,8.8074E-005
 Clear Turbid Sky Daylight Factors,07/21,BUILDING STORY 6 THERMALZONE,SUB SURFACE 33,8.1208E-005,8.1208E-005
 Intermediate Sky Daylight Factors,07/21,BUILDING STORY 6 THERMALZONE,SUB SURFACE 33,7.0155E-005,7.0155E-005
 Overcast Sky Daylight Factors,07/21,BUILDING STORY 6 THERMALZONE,SUB SURFACE 33,7.3860E-005,7.3860E-005
 Clear Sky Daylight Factors,07/21,BUILDING STORY 6 THERMALZONE,SUB SURFACE 36,0.0000,0.0000
 Clear Turbid Sky Daylight Factors,07/21,BUILDING STORY 6 THERMALZONE,SUB SURFACE 36,0.0000,0.0000
 Intermediate Sky Daylight Factors,07/21,BUILDING STORY 6 THERMALZONE,SUB SURFACE 36,0.0000,0.0000
 Overcast Sky Daylight Factors,07/21,BUILDING STORY 6 THERMALZONE,SUB SURFACE 36,0.0000,0.0000
 Clear Sky Daylight Factors,07/21,BUILDING STORY 6 THERMALZONE,SUB SURFACE 35,2.2695E-004,2.2695E-004
 Clear Turbid Sky Daylight Factors,07/21,BUILDING STORY 6 THERMALZONE,SUB SURFACE 35,2.0928E-004,2.0928E-004
 Intermediate Sky Daylight Factors,07/21,BUILDING STORY 6 THERMALZONE,SUB SURFACE 35,1.8105E-004,1.8105E-004
 Overcast Sky Daylight Factors,07/21,BUILDING STORY 6 THERMALZONE,SUB SURFACE 35,1.9070E-004,1.9070E-004
 Clear Sky Daylight Factors,07/21,BUILDING STORY 6 THERMALZONE,SUB SURFACE 34,0.0000,0.0000
 Clear Turbid Sky Daylight Factors,07/21,BUILDING STORY 6 THERMALZONE,SUB SURFACE 34,0.0000,0.0000
 Intermediate Sky Daylight Factors,07/21,BUILDING STORY 6 THERMALZONE,SUB SURFACE 34,0.0000,0.0000
 Overcast Sky Daylight Factors,07/21,BUILDING STORY 6 THERMALZONE,SUB SURFACE 34,0.0000,0.0000
 Clear Sky Daylight Factors,07/21,BUILDING STORY 7 THERMALZONE,SUB SURFACE 38,2.8041E-004,2.8041E-004
 Clear Turbid Sky Daylight Factors,07/21,BUILDING STORY 7 THERMALZONE,SUB SURFACE 38,2.5120E-004,2.5120E-004
 Intermediate Sky Daylight Factors,07/21,BUILDING STORY 7 THERMALZONE,SUB SURFACE 38,2.1544E-004,2.1544E-004
 Overcast Sky Daylight Factors,07/21,BUILDING STORY 7 THERMALZONE,SUB SURFACE 38,2.6280E-004,2.6280E-004
 Clear Sky Daylight Factors,07/21,BUILDING STORY 7 THERMALZONE,SUB SURFACE 39,0.0000,0.0000
 Clear Turbid Sky Daylight Factors,07/21,BUILDING STORY 7 THERMALZONE,SUB SURFACE 39,0.0000,0.0000
 Intermediate Sky Daylight Factors,07/21,BUILDING STORY 7 THERMALZONE,SUB SURFACE 39,0.0000,0.0000
 Overcast Sky Daylight Factors,07/21,BUILDING STORY 7 THERMALZONE,SUB SURFACE 39,0.0000,0.0000
 Clear Sky Daylight Factors,07/21,BUILDING STORY 7 THERMALZONE,SUB SURFACE 40,1.0005E-004,8.8074E-005
 Clear Turbid Sky Daylight Factors,07/21,BUILDING STORY 7 THERMALZONE,SUB SURFACE 40,9.0651E-005,8.1208E-005
 Intermediate Sky Daylight Factors,07/21,BUILDING STORY 7 THERMALZONE,SUB SURFACE 40,7.5096E-005,7.0155E-005
 Overcast Sky Daylight Factors,07/21,BUILDING STORY 7 THERMALZONE,SUB SURFACE 40,7.8795E-005,7.3860E-005
 Clear Sky Daylight Factors,07/21,BUILDING STORY 7 THERMALZONE,SUB SURFACE 37,8.4356E-007,0.0000
 Clear Turbid Sky Daylight Factors,07/21,BUILDING STORY 7 THERMALZONE,SUB SURFACE 37,6.8794E-007,0.0000
 Intermediate Sky Daylight Factors,07/21,BUILDING STORY 7 THERMALZONE,SUB SURFACE 37,3.9983E-007,0.0000
 Overcast Sky Daylight Factors,07/21,BUILDING STORY 7 THERMALZONE,SUB SURFACE 37,3.4484E-007,0.0000
 Clear Sky Daylight Factors,07/21,BUILDING STORY 7 THERMALZONE,SUB SURFACE 41,2.2823E-004,2.2823E-004
 Clear Turbid Sky Daylight Factors,07/21,BUILDING STORY 7 THERMALZONE,SUB SURFACE 41,2.1026E-004,2.1026E-004
 Intermediate Sky Daylight Factors,07/21,BUILDING STORY 7 THERMALZONE,SUB SURFACE 41,1.8148E-004,1.8148E-004
 Overcast Sky Daylight Factors,07/21,BUILDING STORY 7 THERMALZONE,SUB SURFACE 41,1.9149E-004,1.9149E-004
 Clear Sky Daylight Factors,07/21,BUILDING STORY 7 THERMALZONE,SUB SURFACE 42,0.0000,0.0000
 Clear Turbid Sky Daylight Factors,07/21,BUILDING STORY 7 THERMALZONE,SUB SURFACE 42,0.0000,0.0000
 Intermediate Sky Daylight Factors,07/21,BUILDING STORY 7 THERMALZONE,SUB SURFACE 42,0.0000,0.0000
 Overcast Sky Daylight Factors,07/21,BUILDING STORY 7 THERMALZONE,SUB SURFACE 42,0.0000,0.0000
! <Zone Sizing Information>, Zone Name, Load Type, Calc Des Load {W}, User Des Load {W}, Calc Des Air Flow Rate {m3/s}, User Des Air Flow Rate {m3/s}, Design Day Name, Date/Time of Peak, Temperature at Peak {C}, Humidity Ratio at Peak {kgWater/kgDryAir}, Floor Area {m2}, # Occupants, Calc Outdoor Air Flow Rate {m3/s}, Calc DOAS Heat Addition Rate {W}
 Zone Sizing Information, BUILDING STORY 1 THERMALZONE, Cooling, 294404.34535, 338564.99715, 21.06150, 24.22073, BUFFALO NIAGARA INTL AP ANN CLG .4% CONDNS DB=>MWB 1, 7/21 08:00:00, 23.41800, 1.33455E-002, 14837.90951, 798.56964, 6.40701, 0.00000
 Zone Sizing Information, BUILDING STORY 1 THERMALZONE, Heating, 172124.09441, 215155.11802, 7.56619, 9.45774, BUFFALO NIAGARA INTL AP ANN HTG 99.6% CONDNS DB 1, 1/21 09:00:00, -16.30000, 9.24091E-004, 14837.90951, 798.56964, 6.40701, 0.00000
 Zone Sizing Information, BUILDING STORY 2 THERMALZONE, Cooling, 899120.97934, 1033989.12624, 64.43683, 74.10235, BUFFALO NIAGARA INTL AP ANN CLG .4% CONDNS DB=>MWB 1, 7/21 10:00:00, 26.76600, 1.33455E-002, 14837.90951, 1181.88307, 15.30145, 0.00000
 Zone Sizing Information, BUILDING STORY 2 THERMALZONE, Heating, 240975.47671, 301219.34589, 10.30072, 15.30145, BUFFALO NIAGARA INTL AP ANN HTG 99.6% CONDNS DB 1, 1/21 10:00:00, -16.30000, 9.24091E-004, 14837.90951, 1181.88307, 15.30145, 0.00000
 Zone Sizing Information, BUILDING STORY 3 THERMALZONE, Cooling, 1496204.31021, 1720634.95675, 110.99190, 127.64069, BUFFALO NIAGARA INTL AP ANN CLG .4% CONDNS DB=>MWB 1, 7/21 08:00:00, 23.41800, 1.33455E-002, 14837.90951, 11179.97501, 53.14049, 0.00000
 Zone Sizing Information, BUILDING STORY 3 THERMALZONE, Heating, 410273.58305, 512841.97881, 18.03569, 53.14049, BUFFALO NIAGARA INTL AP ANN HTG 99.6% CONDNS DB 1, 1/21 22:00:00, -16.30000, 9.24091E-004, 14837.90951, 11179.97501, 53.14049, 0.00000
 Zone Sizing Information, BUILDING STORY 4 THERMALZONE, Cooling, 328100.46668, 377315.53669, 37.96137, 43.65557, BUFFALO NIAGARA INTL AP ANN CLG .4% CONDNS DB=>MWB 1, 7/21 17:00:00, 28.99800, 1.33455E-002, 14837.90951, 493.08227, 5.80528, 0.00000
 Zone Sizing Information, BUILDING STORY 4 THERMALZONE, Heating, 114150.94504, 142688.68131, 3.30067, 5.80528, BUFFALO NIAGARA INTL AP ANN HTG 99.6% CONDNS DB 1, 1/21 22:00:00, -16.30000, 9.24091E-004, 14837.90951, 493.08227, 5.80528, 0.00000
 Zone Sizing Information, BUILDING STORY 5 THERMALZONE, Cooling, 1679027.55510, 1930881.68837, 102.69486, 118.09909, BUFFALO NIAGARA INTL AP ANN CLG .4% CONDNS DB=>MWB 1, 7/21 07:00:00, 21.83700, 1.33455E-002, 14837.90951, 3535.42753, 25.96874, 0.00000
[...]
Water Cooling Coil Capacity Information,Coil:Cooling:Water,1 ZONE VAV 4 CLG COIL,3569546.44,2314949.90,1254596.54,0.65,449734.40,4561.46
 Component Sizing Information, Coil:Heating:Water, 1 ZONE VAV 4 MAIN HTG COIL, Design Size Rated Capacity [W], 821326.64869
 Component Sizing Information, Coil:Heating:Water, 1 ZONE VAV 4 MAIN HTG COIL, Design Size Maximum Water Flow Rate [m3/s], 1.79647E-002
 Component Sizing Information, Coil:Heating:Water, 1 ZONE VAV 4 MAIN HTG COIL, Design Size U-Factor Times Area Value [W/K], 11519.50276
Water Heating Coil Capacity Information,Coil:Heating:Water,1 ZONE VAV 4 MAIN HTG COIL,606036.39
 Component Sizing Information, Fan:VariableVolume, 1 ZONE VAV 4 FAN, Design Size Maximum Flow Rate [m3/s], 118.09909
 Component Sizing Information, Controller:WaterCoil, 1 ZONE VAV 4 CLG COIL CONTROLLER, Maximum Actuated Flow [m3/s], 0.14062
 Component Sizing Information, Controller:WaterCoil, 1 ZONE VAV 4 CLG COIL CONTROLLER, Controller Convergence Tolerance, 3.38641E-006
 Component Sizing Information, Controller:WaterCoil, 1 ZONE VAV 4 MAIN HTG COIL CONTROLLER, Maximum Actuated Flow [m3/s], 1.79647E-002
 Component Sizing Information, Controller:OutdoorAir, 1 ZONE VAV 5 OA CONTROLLER, Maximum Outdoor Air Flow Rate [m3/s], 110.08356
 Component Sizing Information, Coil:Cooling:Water, 1 ZONE VAV 5 CLG COIL, Design Size Design Inlet Air Temperature [C], 25.71320
 Component Sizing Information, Coil:Cooling:Water, 1 ZONE VAV 5 CLG COIL, Design Size Design Inlet Water Temperature [C], 6.66667
 Component Sizing Information, Coil:Cooling:Water, 1 ZONE VAV 5 CLG COIL, Design Size Design Outlet Air Temperature [C], 10.93110
 Component Sizing Information, Coil:Cooling:Water, 1 ZONE VAV 5 CLG COIL, Design Size Design Inlet Air Humidity Ratio, 1.10290E-002
 Component Sizing Information, Coil:Cooling:Water, 1 ZONE VAV 5 CLG COIL, Design Size Design Outlet Air Humidity Ratio, 8.50000E-003
 Component Sizing Information, Coil:Cooling:Water, 1 ZONE VAV 5 CLG COIL, Design Size Design Coil Load [W], 2782701.73297
 Component Sizing Information, Coil:Cooling:Water, 1 ZONE VAV 5 CLG COIL, Design Size Design Water Flow Rate [m3/s], 0.11815
 Component Sizing Information, Coil:Cooling:Water, 1 ZONE VAV 5 CLG COIL, Design Size Design Air Flow Rate [m3/s], 110.08356
Water Cooling Coil Capacity Information,Coil:Cooling:Water,1 ZONE VAV 5 CLG COIL,3237385.77,2118381.00,1119004.77,0.65,413411.56,4193.05
 Component Sizing Information, Coil:Heating:Water, 1 ZONE VAV 5 MAIN HTG COIL, Design Size Rated Capacity [W], 1007107.78337
 Component Sizing Information, Coil:Heating:Water, 1 ZONE VAV 5 MAIN HTG COIL, Design Size Maximum Water Flow Rate [m3/s], 2.20283E-002
 Component Sizing Information, Coil:Heating:Water, 1 ZONE VAV 5 MAIN HTG COIL, Design Size U-Factor Times Area Value [W/K], 13515.45088
Water Heating Coil Capacity Information,Coil:Heating:Water,1 ZONE VAV 5 MAIN HTG COIL,694973.92
 Component Sizing Information, Fan:VariableVolume, 1 ZONE VAV 5 FAN, Design Size Maximum Flow Rate [m3/s], 110.08356
 Component Sizing Information, Controller:WaterCoil, 1 ZONE VAV 5 CLG COIL CONTROLLER, Maximum Actuated Flow [m3/s], 0.11815
 Component Sizing Information, Controller:WaterCoil, 1 ZONE VAV 5 CLG COIL CONTROLLER, Controller Convergence Tolerance, 4.03045E-006
 Component Sizing Information, Controller:WaterCoil, 1 ZONE VAV 5 MAIN HTG COIL CONTROLLER, Maximum Actuated Flow [m3/s], 2.20283E-002
Water Heater Information,WaterHeater:Mixed,6.0GAL ELECTRICITY BOOSTER WATER HEATER - 934KBTU/HR 1.0 THERM EFF,2.2712E-002,273861.7,38.477,0.9163
Water Heater Information,WaterHeater:Mixed,4867GAL NATURALGAS WATER HEATER - 4867KBTU/HR 0.806 THERM EFF,18.4234,1426363.2,3.816E-002,3.8210E-002
Water Heater Information,WaterHeater:Mixed,6.0GAL ELECTRICITY BOOSTER WATER HEATER - 71KBTU/HR 1.0 THERM EFF,2.2712E-002,20910.4,35.005,0.9164
Water Heater Information,WaterHeater:Mixed,372GAL ELECTRICITY WATER HEATER - 372KBTU/HR 1.0 THERM EFF,1.4067,108908.4,0.613,0.7410
Water Heater Information,WaterHeater:Mixed,732GAL ELECTRICITY WATER HEATER - 732KBTU/HR 1.0 THERM EFF,2.7709,214527.7,0.314,0.9427
Water Heater Information,WaterHeater:Mixed,555GAL ELECTRICITY WATER HEATER - 555KBTU/HR 1.0 THERM EFF,2.1022,162761.0,0.412,0.8290
Water Heater Information,WaterHeater:Mixed,109GAL ELECTRICITY WATER HEATER - 109KBTU/HR 1.0 THERM EFF,0.4131,31986.6,1.992,0.8614
Water Heater Information,WaterHeater:Mixed,36X 50GAL ELECTRICITY WATER HEATER - 20KBTU/HR 1.0 THERM EFF,6.8137,211011.1,0.000,0.0000
Water Heater Information,WaterHeater:Mixed,36X 50GAL ELECTRICITY WATER HEATER - 20KBTU/HR 1 1.0 THERM EFF,6.8137,211011.1,0.000,0.0000
Water Heater Information,WaterHeater:Mixed,71X 50GAL ELECTRICITY WATER HEATER - 20KBTU/HR 1.0 THERM EFF,13.4382,416160.9,0.000,0.0000
 Component Sizing Information, Pump:VariableSpeed, CHILLED WATER LOOP SECONDARY PUMP, Design Flow Rate [m3/s], 0.60190
 Component Sizing Information, Pump:VariableSpeed, CHILLED WATER LOOP SECONDARY PUMP, Design Power Consumption [W], 108345.33257
 Component Sizing Information, PlantLoop, CHILLED WATER LOOP, Maximum Loop Flow Rate [m3/s], 0.60190
 Component Sizing Information, PlantLoop, CHILLED WATER LOOP, Plant Loop Volume [m3], 72.22764
 Component Sizing Information, Pump:ConstantSpeed, CHILLED WATER LOOP PRIMARY PUMP, Design Flow Rate [m3/s], 0.60190
 Component Sizing Information, Pump:ConstantSpeed, CHILLED WATER LOOP PRIMARY PUMP, Design Power Consumption [W], 36611.93249
 Component Sizing Information, Chiller:Electric:EIR, 90.1-2013 WATERCOOLED  ROTARY SCREW CHILLER 0 3651TONS 0.6KW/TON, Design Size Reference Chilled Water Flow Rate [m3/s], 0.60190
 Component Sizing Information, Chiller:Electric:EIR, 90.1-2013 WATERCOOLED  ROTARY SCREW CHILLER 0 3651TONS 0.6KW/TON, Design Size Reference Capacity [W], 14176268.41613
 Component Sizing Information, Chiller:Electric:EIR, 90.1-2013 WATERCOOLED  ROTARY SCREW CHILLER 0 3651TONS 0.6KW/TON, Design Size Reference Condenser Fluid Flow Rate [m3/s], 0.70774
! <Chiller Standard Rating Information>, Component Type, Component Name, IPLV in SI Units {W/W}, IPLV in IP Units {Btu/W-h}
 Chiller Standard Rating Information, Chiller:Electric:EIR, 90.1-2013 WATERCOOLED  ROTARY SCREW CHILLER 0 3651TONS 0.6KW/TON, 5.85, 19.97
 Component Sizing Information, PlantLoop, FULLSERVICERESTAURANT KITCHEN - 90.1-2013 SERVICE WATER BOOSTER LOOP, Maximum Loop Flow Rate [m3/s], 4.87392E-003
 Component Sizing Information, PlantLoop, FULLSERVICERESTAURANT KITCHEN - 90.1-2013 SERVICE WATER BOOSTER LOOP, Plant Loop Volume [m3], 0.58487
 Component Sizing Information, Pump:VariableSpeed, BOOSTER WATER LOOP PUMP, Design Flow Rate [m3/s], 4.87392E-003
 Component Sizing Information, HeatExchanger:FluidToFluid, HX FOR BOOSTER WATER HEATING, Loop Supply Side Design Fluid Flow Rate [m3/s], 4.87392E-003
 Component Sizing Information, HeatExchanger:FluidToFluid, HX FOR BOOSTER WATER HEATING, Loop Demand Side Design Fluid Flow Rate [m3/s], 4.87392E-003
 Component Sizing Information, HeatExchanger:FluidToFluid, HX FOR BOOSTER WATER HEATING, Heat Exchanger U-Factor Times Area Value [W/C], 5939.50479
 Component Sizing Information, HeatExchanger:FluidToFluid, HX FOR BOOSTER WATER HEATING, Loop-to-loop Temperature Difference Used to Size Heat Exchanger U-Factor Times Area Value [C], 17.22222
 Component Sizing Information, WaterHeater:Mixed, 6.0GAL ELECTRICITY BOOSTER WATER HEATER - 934KBTU/HR 1.0 THERM EFF, Use Side Design Flow Rate [m3/s], 4.87392E-003
 Component Sizing Information, PlantComponent:TemperatureSource, MAINS WATER MAKEUP FOR SWH BOOSTER, Design Size Design Fluid Flow Rate [m3/s], 2.76189E-002
 Component Sizing Information, PlantLoop, LARGEHOTEL KITCHEN - 90.1-2013 SERVICE WATER BOOSTER LOOP, Maximum Loop Flow Rate [m3/s], 3.72143E-004
 Component Sizing Information, PlantLoop, LARGEHOTEL KITCHEN - 90.1-2013 SERVICE WATER BOOSTER LOOP, Plant Loop Volume [m3], 4.46572E-002
 Component Sizing Information, Pump:VariableSpeed, BOOSTER WATER LOOP PUMP 1, Design Flow Rate [m3/s], 3.72143E-004
 Component Sizing Information, HeatExchanger:FluidToFluid, HX FOR BOOSTER WATER HEATING 1, Loop Supply Side Design Fluid Flow Rate [m3/s], 3.72143E-004
 Component Sizing Information, HeatExchanger:FluidToFluid, HX FOR BOOSTER WATER HEATING 1, Loop Demand Side Design Fluid Flow Rate [m3/s], 3.72143E-004
 Component Sizing Information, HeatExchanger:FluidToFluid, HX FOR BOOSTER WATER HEATING 1, Heat Exchanger U-Factor Times Area Value [W/C], 453.50442
 Component Sizing Information, HeatExchanger:FluidToFluid, HX FOR BOOSTER WATER HEATING 1, Loop-to-loop Temperature Difference Used to Size Heat Exchanger U-Factor Times Area Value [C], 17.22222
 Component Sizing Information, WaterHeater:Mixed, 6.0GAL ELECTRICITY BOOSTER WATER HEATER - 71KBTU/HR 1.0 THERM EFF, Use Side Design Flow Rate [m3/s], 3.72143E-004
 Component Sizing Information, PlantComponent:TemperatureSource, MAINS WATER MAKEUP FOR SWH BOOSTER 1, Design Size Design Fluid Flow Rate [m3/s], 2.10881E-003
 Component Sizing Information, PlantLoop, CONDENSER WATER LOOP, Maximum Loop Flow Rate [m3/s], 0.70774
 Component Sizing Information, PlantLoop, CONDENSER WATER LOOP, Plant Loop Volume [m3], 84.92822
 Component Sizing Information, Pump:ConstantSpeed, CONDENSER WATER LOOP CONSTANT PUMP, Design Flow Rate [m3/s], 0.70774
 Component Sizing Information, Pump:ConstantSpeed, CONDENSER WATER LOOP CONSTANT PUMP, Design Power Consumption [W], 140117.74735
 Component Sizing Information, CoolingTower:VariableSpeed, PROPELLER OR AXIAL VARIABLE SPEED FAN OPEN COOLING TOWER 40.2 GPM/HP, Design Water Flow Rate [m3/s], 0.70774
 Component Sizing Information, CoolingTower:VariableSpeed, PROPELLER OR AXIAL VARIABLE SPEED FAN OPEN COOLING TOWER 40.2 GPM/HP, Design Air Flow Rate [m3/s], 491.48663
 Component Sizing Information, CoolingTower:VariableSpeed, PROPELLER OR AXIAL VARIABLE SPEED FAN OPEN COOLING TOWER 40.2 GPM/HP, Nominal Capacity [W], 16336572.65108
 Component Sizing Information, CoolingTower:VariableSpeed, PROPELLER OR AXIAL VARIABLE SPEED FAN OPEN COOLING TOWER 40.2 GPM/HP, Air Flow Rate in free convection regime [m3/s], 98.29733
 Component Sizing Information, CoolingTower:VariableSpeed, PROPELLER OR AXIAL VARIABLE SPEED FAN OPEN COOLING TOWER 40.2 GPM/HP, Tower capacity in free convection regime at design conditions [W], 2042071.58139
 Component Sizing Information, PlantLoop, FULLSERVICERESTAURANT KITCHEN - 90.1-2013 SERVICE WATER LOOP, Maximum Loop Flow Rate [m3/s], 3.57421E-002
 Component Sizing Information, PlantLoop, FULLSERVICERESTAURANT KITCHEN - 90.1-2013 SERVICE WATER LOOP, Plant Loop Volume [m3], 4.28905
 Component Sizing Information, Pump:VariableSpeed, FULLSERVICERESTAURANT KITCHEN - 90.1-2013 SERVICE WATER LOOP WATER MAINS PRESSURE DRIVEN, Design Flow Rate [m3/s], 3.57421E-002
 Component Sizing Information, Pump:VariableSpeed, FULLSERVICERESTAURANT KITCHEN - 90.1-2013 SERVICE WATER LOOP WATER MAINS PRESSURE DRIVEN, Design Power Consumption [W], 6.54617E-005
 Component Sizing Information, WaterHeater:Mixed, 4867GAL NATURALGAS WATER HEATER - 4867KBTU/HR 0.806 THERM EFF, Use Side Design Flow Rate [m3/s], 3.57421E-002
 Component Sizing Information, PlantLoop, HOT WATER LOOP, Maximum Loop Flow Rate [m3/s], 0.31081
 Component Sizing Information, PlantLoop, HOT WATER LOOP, Plant Loop Volume [m3], 37.29679
 Component Sizing Information, Pump:VariableSpeed, HOT WATER LOOP PUMP, Design Flow Rate [m3/s], 0.31081
 Component Sizing Information, Pump:VariableSpeed, HOT WATER LOOP PUMP, Design Power Consumption [W], 74909.02942
 Component Sizing Information, Boiler:HotWater, BOILER 46744KBTU/HR 0.8 THERMAL EFF, Design Size Nominal Capacity [W], 14209705.64505
 Component Sizing Information, Boiler:HotWater, BOILER 46744KBTU/HR 0.8 THERMAL EFF, Design Size Design Water Flow Rate [m3/s], 0.31081
 Component Sizing Information, PlantLoop, LARGEHOTEL KITCHEN - 90.1-2013 SERVICE WATER LOOP, Maximum Loop Flow Rate [m3/s], 2.72905E-003
 Component Sizing Information, PlantLoop, LARGEHOTEL KITCHEN - 90.1-2013 SERVICE WATER LOOP, Plant Loop Volume [m3], 0.32749
 Component Sizing Information, Pump:VariableSpeed, LARGEHOTEL KITCHEN - 90.1-2013 SERVICE WATER LOOP WATER MAINS PRESSURE DRIVEN, Design Flow Rate [m3/s], 2.72905E-003
 Component Sizing Information, Pump:VariableSpeed, LARGEHOTEL KITCHEN - 90.1-2013 SERVICE WATER LOOP WATER MAINS PRESSURE DRIVEN, Design Power Consumption [W], 4.99826E-006
 Component Sizing Information, WaterHeater:Mixed, 372GAL ELECTRICITY WATER HEATER - 372KBTU/HR 1.0 THERM EFF, Use Side Design Flow Rate [m3/s], 2.72905E-003
 Component Sizing Information, PlantLoop, LARGEHOTEL LAUNDRY - 90.1-2013 SERVICE WATER LOOP, Maximum Loop Flow Rate [m3/s], 7.33047E-004
 Component Sizing Information, PlantLoop, LARGEHOTEL LAUNDRY - 90.1-2013 SERVICE WATER LOOP, Plant Loop Volume [m3], 8.79657E-002
 Component Sizing Information, Pump:VariableSpeed, LARGEHOTEL LAUNDRY - 90.1-2013 SERVICE WATER LOOP WATER MAINS PRESSURE DRIVEN, Design Flow Rate [m3/s], 7.33047E-004
 Component Sizing Information, Pump:VariableSpeed, LARGEHOTEL LAUNDRY - 90.1-2013 SERVICE WATER LOOP WATER MAINS PRESSURE DRIVEN, Design Power Consumption [W], 1.34258E-006
 Component Sizing Information, WaterHeater:Mixed, 732GAL ELECTRICITY WATER HEATER - 732KBTU/HR 1.0 THERM EFF, Use Side Design Flow Rate [m3/s], 7.33047E-004
 Component Sizing Information, PlantLoop, LARGEHOTEL SHARED SERVICE WATER LOOP, Maximum Loop Flow Rate [m3/s], 6.95199E-004
 Component Sizing Information, PlantLoop, LARGEHOTEL SHARED SERVICE WATER LOOP, Plant Loop Volume [m3], 8.34238E-002
 Component Sizing Information, Pump:ConstantSpeed, LARGEHOTEL SHARED SERVICE WATER LOOP CIRCULATOR PUMP, Design Flow Rate [m3/s], 6.95199E-004
 Component Sizing Information, Pump:ConstantSpeed, LARGEHOTEL SHARED SERVICE WATER LOOP CIRCULATOR PUMP, Design Power Consumption [W], 38.05852
 Component Sizing Information, WaterHeater:Mixed, 555GAL ELECTRICITY WATER HEATER - 555KBTU/HR 1.0 THERM EFF, Use Side Design Flow Rate [m3/s], 6.95199E-004
 Component Sizing Information, PlantLoop, OFFICE SHARED SERVICE WATER LOOP, Maximum Loop Flow Rate [m3/s], 1.91753E-004
 Component Sizing Information, PlantLoop, OFFICE SHARED SERVICE WATER LOOP, Plant Loop Volume [m3], 2.30103E-002
 Component Sizing Information, Pump:ConstantSpeed, OFFICE SHARED SERVICE WATER LOOP CIRCULATOR PUMP, Design Flow Rate [m3/s], 1.91753E-004
 Component Sizing Information, Pump:ConstantSpeed, OFFICE SHARED SERVICE WATER LOOP CIRCULATOR PUMP, Design Power Consumption [W], 10.49747
 Component Sizing Information, WaterHeater:Mixed, 109GAL ELECTRICITY WATER HEATER - 109KBTU/HR 1.0 THERM EFF, Use Side Design Flow Rate [m3/s], 1.91753E-004
 Component Sizing Information, PlantLoop, STRIPMALL STRIP MALL - TYPE 1 - 90.1-2013 SERVICE WATER LOOP, Maximum Loop Flow Rate [m3/s], 6.81374E-005
 Component Sizing Information, PlantLoop, STRIPMALL STRIP MALL - TYPE 1 - 90.1-2013 SERVICE WATER LOOP, Plant Loop Volume [m3], 8.17649E-003
 Component Sizing Information, Pump:VariableSpeed, STRIPMALL STRIP MALL - TYPE 1 - 90.1-2013 SERVICE WATER LOOP WATER MAINS PRESSURE DRIVEN, Design Flow Rate [m3/s], 6.81374E-005
 Component Sizing Information, Pump:VariableSpeed, STRIPMALL STRIP MALL - TYPE 1 - 90.1-2013 SERVICE WATER LOOP WATER MAINS PRESSURE DRIVEN, Design Power Consumption [W], 1.24794E-007
 Component Sizing Information, WaterHeater:Mixed, 36X 50GAL ELECTRICITY WATER HEATER - 20KBTU/HR 1.0 THERM EFF, Use Side Design Flow Rate [m3/s], 6.81374E-005
 Component Sizing Information, PlantLoop, STRIPMALL STRIP MALL - TYPE 2 - 90.1-2013 SERVICE WATER LOOP, Maximum Loop Flow Rate [m3/s], 6.81374E-005
 Component Sizing Information, PlantLoop, STRIPMALL STRIP MALL - TYPE 2 - 90.1-2013 SERVICE WATER LOOP, Plant Loop Volume [m3], 8.17649E-003
 Component Sizing Information, Pump:VariableSpeed, STRIPMALL STRIP MALL - TYPE 2 - 90.1-2013 SERVICE WATER LOOP WATER MAINS PRESSURE DRIVEN, Design Flow Rate [m3/s], 6.81374E-005
 Component Sizing Information, Pump:VariableSpeed, STRIPMALL STRIP MALL - TYPE 2 - 90.1-2013 SERVICE WATER LOOP WATER MAINS PRESSURE DRIVEN, Design Power Consumption [W], 1.24794E-007
 Component Sizing Information, WaterHeater:Mixed, 36X 50GAL ELECTRICITY WATER HEATER - 20KBTU/HR 1 1.0 THERM EFF, Use Side Design Flow Rate [m3/s], 6.81374E-005
 Component Sizing Information, PlantLoop, STRIPMALL STRIP MALL - TYPE 3 - 90.1-2013 SERVICE WATER LOOP, Maximum Loop Flow Rate [m3/s], 1.34382E-004
 Component Sizing Information, PlantLoop, STRIPMALL STRIP MALL - TYPE 3 - 90.1-2013 SERVICE WATER LOOP, Plant Loop Volume [m3], 1.61259E-002
 Component Sizing Information, Pump:VariableSpeed, STRIPMALL STRIP MALL - TYPE 3 - 90.1-2013 SERVICE WATER LOOP WATER MAINS PRESSURE DRIVEN, Design Flow Rate [m3/s], 1.34382E-004
 Component Sizing Information, Pump:VariableSpeed, STRIPMALL STRIP MALL - TYPE 3 - 90.1-2013 SERVICE WATER LOOP WATER MAINS PRESSURE DRIVEN, Design Power Consumption [W], 2.46121E-007
 Component Sizing Information, WaterHeater:Mixed, 71X 50GAL ELECTRICITY WATER HEATER - 20KBTU/HR 1.0 THERM EFF, Use Side Design Flow Rate [m3/s], 1.34382E-004
! <Environment>,Environment Name,Environment Type, Start Date, End Date, Start DayOfWeek, Duration {#days}, Source:Start DayOfWeek,  Use Daylight Saving, Use Holidays, Apply Weekend Holiday Rule,  Use Rain Values, Use Snow Values
! <Environment:Special Days>, Special Day Name, Special Day Type, Source, Start Date, Duration {#days}
! <Environment:Daylight Saving>, Daylight Saving Indicator, Source, Start Date, End Date
! <Environment:WarmupDays>, NumberofWarmupDays
Environment,RUN PERIOD 1,WeatherFileRunPeriod,01/01/2019,12/31/2019,Tuesday,365,Use RunPeriod Specified Day,No,No,No,Yes,Yes
Environment:Daylight Saving,Yes,InputFile,03/10,11/03
Environment:WarmupDays,  8
! <Tabular Report>,Style,Unit Conversion
Tabular Report,HTML,None
! <Warmup Convergence Information>,Zone Name,Environment Type/Name,Average Warmup Temperature Difference {deltaC},Std Dev Warmup Temperature Difference {deltaC},Max Temperature Pass/Fail Convergence,Min Temperature Pass/Fail Convergence,Average Warmup Load Difference {W},Std Dev Warmup Load Difference {W},Heating Load Pass/Fail Convergence,Cooling Load Pass/Fail Convergence
 Warmup Convergence Information,BUILDING STORY 1 THERMALZONE,RunPeriod: RUN PERIOD 1,0.1682462191,0.2062825207,Pass,Pass,4.6500639980E-002,0.1766753945,Pass,Pass
 Warmup Convergence Information,BUILDING STORY 2 THERMALZONE,RunPeriod: RUN PERIOD 1,9.4365167336E-002,0.2137572789,Pass,Pass,7.0686881790E-002,0.1291360297,Pass,Pass
 Warmup Convergence Information,BUILDING STORY 3 THERMALZONE,RunPeriod: RUN PERIOD 1,0.2046988302,0.3670877943,Pass,Pass,0.2651051149,0.3937438620,Pass,Pass
 Warmup Convergence Information,BUILDING STORY 4 THERMALZONE,RunPeriod: RUN PERIOD 1,0.1436059953,0.3922826742,Pass,Pass,2.1987632702,4.8224253107,Pass,Pass
 Warmup Convergence Information,BUILDING STORY 5 THERMALZONE,RunPeriod: RUN PERIOD 1,0.6632674696,0.8958391882,Pass,Pass,6.7043128485E-002,0.2106687560,Pass,Pass
 Warmup Convergence Information,BUILDING STORY 6 THERMALZONE,RunPeriod: RUN PERIOD 1,2.9142555895E-003,1.6526324079E-003,Pass,Pass,0.1301573893,7.0271096393E-002,Pass,Pass
 Warmup Convergence Information,BUILDING STORY 7 THERMALZONE,RunPeriod: RUN PERIOD 1,0.1331330699,0.3640043218,Pass,Pass,0.9412065281,1.7970539042,Pass,Pass
 Warmup Convergence Information,BUILDING STORY 8 THERMALZONE,RunPeriod: RUN PERIOD 1,0.4489944216,0.6394827787,Pass,Pass,0.4588211575,0.8398122317,Pass,Pass
! <Program Control Information:Threads/Parallel Sims>, Threading Supported,Maximum Number of Threads, Env Set Threads (OMP_NUM_THREADS), EP Env Set Threads (EP_OMP_NUM_THREADS), IDF Set Threads, Number of Threads Used (Interior Radiant Exchange), Number Nominal Surfaces, Number Parallel Sims
Program Control:Threads/Parallel Sims, No,1, N/A, N/A, N/A, N/A, N/A, N/A
End of Data
