Program Version,EnergyPlus, Version 9.1.0-fafb9d5652, YMD=2020.03.26 13:37
! <Version>, Version ID
 Version, 9.1
! <Timesteps per Hour>, #TimeSteps, Minutes per TimeStep {minutes}
 Timesteps per Hour,  1, 60
! <System Convergence Limits>, Minimum System TimeStep {minutes}, Max HVAC Iterations, Minimum Plant Iterations, Maximum Plant Iterations
 System Convergence Limits, 1, 20, 2, 8
! <Simulation Control>, Do Zone Sizing, Do System Sizing, Do Plant Sizing, Do Design Days, Do Weather Simulation, Do HVAC Sizing Simulation
 Simulation Control, Yes, Yes, Yes, No, Yes, No
! <Output Reporting Tolerances>, Tolerance for Time Heating Setpoint Not Met, Tolerance for Zone Cooling Setpoint Not Met Time
 Output Reporting Tolerances, 0.556, 0.556, 
! <Site:GroundTemperature:BuildingSurface>,Jan{C},Feb{C},Mar{C},Apr{C},May{C},Jun{C},Jul{C},Aug{C},Sep{C},Oct{C},Nov{C},Dec{C}
 Site:GroundTemperature:BuildingSurface,  20.14,  20.06,  20.11,  20.22,  20.33,  20.46,  20.58,  20.63,  20.64,  20.54,  20.44,  20.26
! <Site:GroundTemperature:FCfactorMethod>,Jan{C},Feb{C},Mar{C},Apr{C},May{C},Jun{C},Jul{C},Aug{C},Sep{C},Oct{C},Nov{C},Dec{C}
 Site:GroundTemperature:FCfactorMethod,  -2.87,  -0.64,   3.71,   7.83,  15.62,  19.72,  20.85,  18.77,  13.96,   7.98,   2.08,  -1.81
! <Site:GroundTemperature:Shallow>,Jan{C},Feb{C},Mar{C},Apr{C},May{C},Jun{C},Jul{C},Aug{C},Sep{C},Oct{C},Nov{C},Dec{C}
 Site:GroundTemperature:Shallow,  13.00,  13.00,  13.00,  13.00,  13.00,  13.00,  13.00,  13.00,  13.00,  13.00,  13.00,  13.00
! <Site:GroundTemperature:Deep>,Jan{C},Feb{C},Mar{C},Apr{C},May{C},Jun{C},Jul{C},Aug{C},Sep{C},Oct{C},Nov{C},Dec{C}
 Site:GroundTemperature:Deep,  16.00,  16.00,  16.00,  16.00,  16.00,  16.00,  16.00,  16.00,  16.00,  16.00,  16.00,  16.00
! <Site:GroundReflectance>,Jan{dimensionless},Feb{dimensionless},Mar{dimensionless},Apr{dimensionless},May{dimensionless},Jun{dimensionless},Jul{dimensionless},Aug{dimensionless},Sep{dimensionless},Oct{dimensionless},Nov{dimensionless},Dec{dimensionless}
 Site:GroundReflectance,  0.20,  0.20,  0.20,  0.20,  0.20,  0.20,  0.20,  0.20,  0.20,  0.20,  0.20,  0.20
! <Site:GroundReflectance:SnowModifier>, Normal, Daylighting {dimensionless}
 Site:GroundReflectance:SnowModifier,   1.000,   1.000
! <Site:GroundReflectance:Snow>,Jan{dimensionless},Feb{dimensionless},Mar{dimensionless},Apr{dimensionless},May{dimensionless},Jun{dimensionless},Jul{dimensionless},Aug{dimensionless},Sep{dimensionless},Oct{dimensionless},Nov{dimensionless},Dec{dimensionless}
 Site:GroundReflectance:Snow,  0.20,  0.20,  0.20,  0.20,  0.20,  0.20,  0.20,  0.20,  0.20,  0.20,  0.20,  0.20
! <Site:GroundReflectance:Snow:Daylighting>,Jan{dimensionless},Feb{dimensionless},Mar{dimensionless},Apr{dimensionless},May{dimensionless},Jun{dimensionless},Jul{dimensionless},Aug{dimensionless},Sep{dimensionless},Oct{dimensionless},Nov{dimensionless},Dec{dimensionless}
 Site:GroundReflectance:Snow:Daylighting,  0.20,  0.20,  0.20,  0.20,  0.20,  0.20,  0.20,  0.20,  0.20,  0.20,  0.20,  0.20
! <Environment:Weather Station>,Wind Sensor Height Above Ground {m},Wind Speed Profile Exponent {},Wind Speed Profile Boundary Layer Thickness {m},Air Temperature Sensor Height Above Ground {m},Wind Speed Modifier Coefficient-Internal,Temperature Modifier Coefficient-Internal
Environment:Weather Station,10.000,0.140,270.000,1.500,1.586,9.750E-003
! <Site:Location>, Location Name, Latitude {N+/S- Deg}, Longitude {E+/W- Deg},  Time Zone Number {GMT+/-}, Elevation {m},  Standard Pressure at Elevation {Pa}, Standard RhoAir at Elevation
Site:Location,Buffalo Niagara Intl Ap NY USA TMY3 WMO#=725280,42.93,-78.73,-5.00,215.00,98769,1.1739
! <Site Water Mains Temperature Information>,Calculation Method{},Water Mains Temperature Schedule Name{},Annual Average Outdoor Air Temperature{C},Maximum Difference In Monthly Average Outdoor Air Temperatures{deltaC},Fixed Default Water Mains Temperature{C}
Site Water Mains Temperature Information,Correlation,NA,8.97,26.20,NA
! <Building Information>, Building Name,North Axis {deg},Terrain,  Loads Convergence Tolerance Value,Temperature Convergence Tolerance Value,  Solar Distribution,Maximum Number of Warmup Days,Minimum Number of Warmup Days
 Building Information,Hotel 1,0.000,City,4.00000E-002,0.40000,FullExterior,25,6
! <Inside Convection Algorithm>, Algorithm {Simple | TARP | CeilingDiffuser | AdaptiveConvectionAlgorithm}
Inside Convection Algorithm,TARP
! <Outside Convection Algorithm>, Algorithm {SimpleCombined | TARP | MoWitt | DOE-2 | AdaptiveConvectionAlgorithm}
Outside Convection Algorithm,DOE-2
! <Sky Radiance Distribution>, Value {Anisotropic}
Sky Radiance Distribution,Anisotropic
! <Zone Air Solution Algorithm>, Value {ThirdOrderBackwardDifference | AnalyticalSolution | EulerMethod}
 Zone Air Solution Algorithm, ThirdOrderBackwardDifference
! <Zone Air Carbon Dioxide Balance Simulation>, Simulation {Yes/No}, Carbon Dioxide Concentration
 Zone Air Carbon Dioxide Balance Simulation, No,N/A
! <Zone Air Generic Contaminant Balance Simulation>, Simulation {Yes/No}, Generic Contaminant Concentration
 Zone Air Generic Contaminant Balance Simulation, No,N/A
! <Zone Air Mass Flow Balance Simulation>, Enforce Mass Balance, Adjust Zone Mixing, Adjust Zone Infiltration {AddInfiltration | AdjustInfiltration | None}, Infiltration Zones {MixingSourceZonesOnly | AllZones}
 Zone Air Mass Flow Balance Simulation, No,N/A,N/A,N/A
! <HVACSystemRootFindingAlgorithm>, Value {RegulaFalsi | Bisection | BisectionThenRegulaFalsi | RegulaFalsiThenBisection}
 HVACSystemRootFindingAlgorithm, RegulaFalsi
! <Environment:Site Atmospheric Variation>,Wind Speed Profile Exponent {},Wind Speed Profile Boundary Layer Thickness {m},Air Temperature Gradient Coefficient {K/m}
Environment:Site Atmospheric Variation,0.330,460.000,6.500000E-003
! <Surface Geometry>,Starting Corner,Vertex Input Direction,Coordinate System,Daylight Reference Point Coordinate System,Rectangular (Simple) Surface Coordinate System
 Surface Geometry,UpperLeftCorner,Counterclockwise,RelativeCoordinateSystem,RelativeCoordinateSystem,RelativeToZoneOrigin
! <Surface Heat Transfer Algorithm>, Value {CTF - ConductionTransferFunction | EMPD - MoisturePenetrationDepthConductionTransferFunction | CondFD - ConductionFiniteDifference | HAMT - CombinedHeatAndMoistureFiniteElement} - Description,Inside Surface Max Temperature Limit{C}, Surface Convection Coefficient Lower Limit {W/m2-K}, Surface Convection Coefficient Upper Limit {W/m2-K}
Surface Heat Transfer Algorithm, CTF - ConductionTransferFunction,200,0.10,1000.0
! <Shading Summary>, Number of Fixed Detached Shades, Number of Building Detached Shades, Number of Attached Shades
 Shading Summary,0,12,0
! <Zone Summary>, Number of Zones, Number of Zone Surfaces, Number of SubSurfaces
 Zone Summary,10,224,40
! <Zone Information>,Zone Name,North Axis {deg},Origin X-Coordinate {m},Origin Y-Coordinate {m},Origin Z-Coordinate {m},Centroid X-Coordinate {m},Centroid Y-Coordinate {m},Centroid Z-Coordinate {m},Type,Zone Multiplier,Zone List Multiplier,Minimum X {m},Maximum X {m},Minimum Y {m},Maximum Y {m},Minimum Z {m},Maximum Z {m},Ceiling Height {m},Volume {m3},Zone Inside Convection Algorithm {Simple-Detailed-CeilingDiffuser-TrombeWall},Zone Outside Convection Algorithm {Simple-Detailed-Tarp-MoWitt-DOE-2-BLAST}, Floor Area {m2},Exterior Gross Wall Area {m2},Exterior Net Wall Area {m2},Exterior Window Area {m2}, Number of Surfaces, Number of SubSurfaces, Number of Shading SubSurfaces,  Part of Total Building Area
 Zone Information, BUILDING STORY 1 THERMALZONE,0.0,0.00,0.00,0.00,33.23,35.60,1.50,1,1,1,1.52E-010,66.46,2.52E-005,71.19,0.00,3.00,3.00,8807.05,TARP,DOE-2,2935.68,651.86,456.30,195.56,6,4,0,Yes
 Zone Information, BUILDING STORY 10 THERMALZONE,0.0,0.00,0.00,0.00,33.23,35.60,28.50,1,1,1,1.52E-010,66.46,2.52E-005,71.19,27.00,30.00,3.00,8807.05,TARP,DOE-2,2935.68,651.86,456.30,195.56,6,4,0,Yes
 Zone Information, BUILDING STORY 2 THERMALZONE,0.0,0.00,0.00,0.00,33.23,35.60,4.50,1,1,1,1.52E-010,66.46,2.52E-005,71.19,3.00,6.00,3.00,8807.05,TARP,DOE-2,2935.68,651.86,456.30,195.56,6,4,0,Yes
 Zone Information, BUILDING STORY 3 THERMALZONE,0.0,0.00,0.00,0.00,33.23,35.60,7.50,1,1,1,1.52E-010,66.46,2.52E-005,71.19,6.00,9.00,3.00,8807.05,TARP,DOE-2,2935.68,651.86,456.30,195.56,6,4,0,Yes
 Zone Information, BUILDING STORY 4 THERMALZONE,0.0,0.00,0.00,0.00,33.23,35.60,10.50,1,1,1,1.52E-010,66.46,2.52E-005,71.19,9.00,12.00,3.00,8807.05,TARP,DOE-2,2935.68,651.86,456.30,195.56,6,4,0,Yes
 Zone Information, BUILDING STORY 5 THERMALZONE,0.0,0.00,0.00,0.00,33.23,35.60,13.50,1,1,1,1.52E-010,66.46,2.52E-005,71.19,12.00,15.00,3.00,8807.05,TARP,DOE-2,2935.68,651.86,456.30,195.56,6,4,0,Yes
 Zone Information, BUILDING STORY 6 THERMALZONE,0.0,0.00,0.00,0.00,33.23,35.60,16.50,1,1,1,1.52E-010,66.46,2.52E-005,71.19,15.00,18.00,3.00,8807.05,TARP,DOE-2,2935.68,651.86,456.30,195.56,6,4,0,Yes
 Zone Information, BUILDING STORY 7 THERMALZONE,0.0,0.00,0.00,0.00,33.23,35.60,19.50,1,1,1,1.52E-010,66.46,2.52E-005,71.19,18.00,21.00,3.00,8807.05,TARP,DOE-2,2935.68,651.86,456.30,195.56,6,4,0,Yes
 Zone Information, BUILDING STORY 8 THERMALZONE,0.0,0.00,0.00,0.00,33.23,35.60,22.50,1,1,1,1.52E-010,66.46,2.52E-005,71.19,21.00,24.00,3.00,8807.05,TARP,DOE-2,2935.68,651.86,456.30,195.56,6,4,0,Yes
 Zone Information, BUILDING STORY 9 THERMALZONE,0.0,0.00,0.00,0.00,33.23,35.60,25.50,1,1,1,1.52E-010,66.46,2.52E-005,71.19,24.00,27.00,3.00,8807.05,TARP,DOE-2,2935.68,651.86,456.30,195.56,6,4,0,Yes
! <Zone Internal Gains Nominal>,Zone Name, Floor Area {m2},# Occupants,Area per Occupant {m2/person},Occupant per Area {person/m2},Interior Lighting {W/m2},Electric Load {W/m2},Gas Load {W/m2},Other Load {W/m2},Hot Water Eq {W/m2},Steam Equipment {W/m2},Sum Loads per Area {W/m2},Outdoor Controlled Baseboard Heat
 Zone Internal Gains Nominal, BUILDING STORY 1 THERMALZONE,2935.68,996.4,2.946,0.339,10.145,167.276,311.512,0.000,0.000,0.000,488.932,No
 Zone Internal Gains Nominal, BUILDING STORY 10 THERMALZONE,2935.68,79.2,37.045,2.699E-002,8.995,4.741,0.000,0.000,0.000,0.000,13.736,No
 Zone Internal Gains Nominal, BUILDING STORY 2 THERMALZONE,2935.68,889.3,3.301,0.303,11.247,7.848,0.000,0.000,0.000,0.000,19.094,No
 Zone Internal Gains Nominal, BUILDING STORY 3 THERMALZONE,2935.68,79.2,37.045,2.699E-002,8.995,4.741,0.000,0.000,0.000,0.000,13.736,No
 Zone Internal Gains Nominal, BUILDING STORY 4 THERMALZONE,2935.68,1625.3,1.806,0.554,10.429,40.090,0.000,0.000,0.000,0.000,50.520,No
 Zone Internal Gains Nominal, BUILDING STORY 5 THERMALZONE,2935.68,79.2,37.045,2.699E-002,8.995,4.741,0.000,0.000,0.000,0.000,13.736,No
 Zone Internal Gains Nominal, BUILDING STORY 6 THERMALZONE,2935.68,79.2,37.045,2.699E-002,8.995,4.741,0.000,0.000,0.000,0.000,13.736,No
 Zone Internal Gains Nominal, BUILDING STORY 7 THERMALZONE,2935.68,79.2,37.045,2.699E-002,8.995,4.741,0.000,0.000,0.000,0.000,13.736,No
 Zone Internal Gains Nominal, BUILDING STORY 8 THERMALZONE,2935.68,79.2,37.045,2.699E-002,8.995,4.741,0.000,0.000,0.000,0.000,13.736,No
 Zone Internal Gains Nominal, BUILDING STORY 9 THERMALZONE,2935.68,79.2,37.045,2.699E-002,8.995,4.741,0.000,0.000,0.000,0.000,13.736,No
! <People Internal Gains Nominal>,Name,Schedule Name,Zone Name,Zone Floor Area {m2},# Zone Occupants,Number of People {},People/Floor Area {person/m2},Floor Area per person {m2/person},Fraction Radiant,Fraction Convected,Sensible Fraction Calculation,Activity level,ASHRAE 55 Warnings,Carbon Dioxide Generation Rate,Nominal Minimum Number of People,Nominal Maximum Number of People,MRT Calculation Type,Work Efficiency, Clothing Insulation Calculation Method,Clothing Insulation Calculation Method Schedule,Clothing,Air Velocity,Fanger Calculation,Pierce Calculation,KSU Calculation
 People Internal Gains Nominal, BUILDING STORY 1 THERMALZONE LARGEHOTEL BANQUET PEOPLE 1,HOTELLARGE BLDG_OCC_SCH,BUILDING STORY 1 THERMALZONE,2935.68,996.4,382.1,0.130,7.684,0.300,0.700,AutoCalculate,HOTELLARGE ACTIVITY_SCH,Yes,3.8200E-008,0,382,Zone Averaged,WORK EFFICIENCY SCHEDULE,Clothing Insulation Schedule,N/A,CLOTHING SCHEDULE,AIR VELOCITY SCHEDULE,Yes,No,No
 People Internal Gains Nominal, BUILDING STORY 1 THERMALZONE LARGEHOTEL CAFE PEOPLE 1,HOTELLARGE BLDG_OCC_SCH,BUILDING STORY 1 THERMALZONE,2935.68,996.4,444.7,0.151,6.601,0.300,0.700,AutoCalculate,HOTELLARGE ACTIVITY_SCH,Yes,3.8200E-008,0,445,Zone Averaged,WORK EFFICIENCY SCHEDULE,Clothing Insulation Schedule,N/A,CLOTHING SCHEDULE,AIR VELOCITY SCHEDULE,Yes,No,No
 People Internal Gains Nominal, BUILDING STORY 1 THERMALZONE LARGEHOTEL KITCHEN PEOPLE 1,HOTELLARGE BLDG_OCC_SCH,BUILDING STORY 1 THERMALZONE,2935.68,996.4,69.7,2.373E-002,42.143,0.300,0.700,AutoCalculate,HOTELLARGE ACTIVITY_SCH,Yes,3.8200E-008,0,70,Zone Averaged,WORK EFFICIENCY SCHEDULE,Clothing Insulation Schedule,N/A,CLOTHING SCHEDULE,AIR VELOCITY SCHEDULE,Yes,No,No
 People Internal Gains Nominal, BUILDING STORY 1 THERMALZONE LARGEHOTEL LAUNDRY PEOPLE 1,HOTELLARGE BLDG_OCC_SCH,BUILDING STORY 1 THERMALZONE,2935.68,996.4,26.4,8.996E-003,111.161,0.300,0.700,AutoCalculate,HOTELLARGE ACTIVITY_SCH,Yes,3.8200E-008,0,26,Zone Averaged,WORK EFFICIENCY SCHEDULE,Clothing Insulation Schedule,N/A,CLOTHING SCHEDULE,AIR VELOCITY SCHEDULE,Yes,No,No
 People Internal Gains Nominal, BUILDING STORY 1 THERMALZONE LARGEHOTEL RETAIL PEOPLE 1,HOTELLARGE BLDG_OCC_SCH,BUILDING STORY 1 THERMALZONE,2935.68,996.4,73.5,2.503E-002,39.948,0.300,0.700,AutoCalculate,HOTELLARGE ACTIVITY_SCH,Yes,3.8200E-008,0,73,Zone Averaged,WORK EFFICIENCY SCHEDULE,Clothing Insulation Schedule,N/A,CLOTHING SCHEDULE,AIR VELOCITY SCHEDULE,Yes,No,No
 People Internal Gains Nominal, BUILDING STORY 4 THERMALZONE LARGEHOTEL BANQUET PEOPLE 2,HOTELLARGE BLDG_OCC_SCH,BUILDING STORY 4 THERMALZONE,2935.68,1625.3,1185.3,0.404,2.477,0.300,0.700,AutoCalculate,HOTELLARGE ACTIVITY_SCH,Yes,3.8200E-008,0,1185,Zone Averaged,WORK EFFICIENCY SCHEDULE,Clothing Insulation Schedule,N/A,CLOTHING SCHEDULE,AIR VELOCITY SCHEDULE,Yes,No,No
 People Internal Gains Nominal, BUILDING STORY 4 THERMALZONE LARGEHOTEL LOBBY PEOPLE 1,HOTELLARGE BLDG_OCC_SCH,BUILDING STORY 4 THERMALZONE,2935.68,1625.3,440.0,0.150,6.672,0.300,0.700,AutoCalculate,HOTELLARGE ACTIVITY_SCH,Yes,3.8200E-008,0,440,Zone Averaged,WORK EFFICIENCY SCHEDULE,Clothing Insulation Schedule,N/A,CLOTHING SCHEDULE,AIR VELOCITY SCHEDULE,Yes,No,No
 People Internal Gains Nominal, BUILDING STORY 2 THERMALZONE LARGEHOTEL GUESTROOM PEOPLE 1,HOTELLARGE GUESTROOM_OCC_SCH,BUILDING STORY 2 THERMALZONE,2935.68,889.3,5.4,1.824E-003,548.100,0.300,0.700,AutoCalculate,HOTELLARGE ACTIVITY_SCH,Yes,3.8200E-008,0,5,Zone Averaged,WORK EFFICIENCY SCHEDULE,Clothing Insulation Schedule,N/A,CLOTHING SCHEDULE,AIR VELOCITY SCHEDULE,Yes,No,No
 People Internal Gains Nominal, BUILDING STORY 2 THERMALZONE LARGEHOTEL LOBBY PEOPLE 2,HOTELLARGE BLDG_OCC_SCH,BUILDING STORY 2 THERMALZONE,2935.68,889.3,883.9,0.301,3.321,0.300,0.700,AutoCalculate,HOTELLARGE ACTIVITY_SCH,Yes,3.8200E-008,0,884,Zone Averaged,WORK EFFICIENCY SCHEDULE,Clothing Insulation Schedule,N/A,CLOTHING SCHEDULE,AIR VELOCITY SCHEDULE,Yes,No,No
 People Internal Gains Nominal, BUILDING STORY 6 THERMALZONE LARGEHOTEL GUESTROOM PEOPLE 2,HOTELLARGE GUESTROOM_OCC_SCH,BUILDING STORY 6 THERMALZONE,2935.68,79.2,79.2,2.699E-002,37.045,0.300,0.700,AutoCalculate,HOTELLARGE ACTIVITY_SCH,Yes,3.8200E-008,0,79,Zone Averaged,WORK EFFICIENCY SCHEDULE,Clothing Insulation Schedule,N/A,CLOTHING SCHEDULE,AIR VELOCITY SCHEDULE,Yes,No,No
 People Internal Gains Nominal, BUILDING STORY 3 THERMALZONE LARGEHOTEL GUESTROOM PEOPLE 3,HOTELLARGE GUESTROOM_OCC_SCH,BUILDING STORY 3 THERMALZONE,2935.68,79.2,79.2,2.699E-002,37.045,0.300,0.700,AutoCalculate,HOTELLARGE ACTIVITY_SCH,Yes,3.8200E-008,0,79,Zone Averaged,WORK EFFICIENCY SCHEDULE,Clothing Insulation Schedule,N/A,CLOTHING SCHEDULE,AIR VELOCITY SCHEDULE,Yes,No,No
 People Internal Gains Nominal, BUILDING STORY 5 THERMALZONE LARGEHOTEL GUESTROOM PEOPLE 4,HOTELLARGE GUESTROOM_OCC_SCH,BUILDING STORY 5 THERMALZONE,2935.68,79.2,79.2,2.699E-002,37.045,0.300,0.700,AutoCalculate,HOTELLARGE ACTIVITY_SCH,Yes,3.8200E-008,0,79,Zone Averaged,WORK EFFICIENCY SCHEDULE,Clothing Insulation Schedule,N/A,CLOTHING SCHEDULE,AIR VELOCITY SCHEDULE,Yes,No,No
 People Internal Gains Nominal, BUILDING STORY 7 THERMALZONE LARGEHOTEL GUESTROOM PEOPLE 5,HOTELLARGE GUESTROOM_OCC_SCH,BUILDING STORY 7 THERMALZONE,2935.68,79.2,79.2,2.699E-002,37.045,0.300,0.700,AutoCalculate,HOTELLARGE ACTIVITY_SCH,Yes,3.8200E-008,0,79,Zone Averaged,WORK EFFICIENCY SCHEDULE,Clothing Insulation Schedule,N/A,CLOTHING SCHEDULE,AIR VELOCITY SCHEDULE,Yes,No,No
 People Internal Gains Nominal, BUILDING STORY 8 THERMALZONE LARGEHOTEL GUESTROOM PEOPLE 6,HOTELLARGE GUESTROOM_OCC_SCH,BUILDING STORY 8 THERMALZONE,2935.68,79.2,79.2,2.699E-002,37.045,0.300,0.700,AutoCalculate,HOTELLARGE ACTIVITY_SCH,Yes,3.8200E-008,0,79,Zone Averaged,WORK EFFICIENCY SCHEDULE,Clothing Insulation Schedule,N/A,CLOTHING SCHEDULE,AIR VELOCITY SCHEDULE,Yes,No,No
 People Internal Gains Nominal, BUILDING STORY 9 THERMALZONE LARGEHOTEL GUESTROOM PEOPLE 7,HOTELLARGE GUESTROOM_OCC_SCH,BUILDING STORY 9 THERMALZONE,2935.68,79.2,79.2,2.699E-002,37.045,0.300,0.700,AutoCalculate,HOTELLARGE ACTIVITY_SCH,Yes,3.8200E-008,0,79,Zone Averaged,WORK EFFICIENCY SCHEDULE,Clothing Insulation Schedule,N/A,CLOTHING SCHEDULE,AIR VELOCITY SCHEDULE,Yes,No,No
 People Internal Gains Nominal, BUILDING STORY 10 THERMALZONE LARGEHOTEL GUESTROOM PEOPLE 8,HOTELLARGE GUESTROOM_OCC_SCH,BUILDING STORY 10 THERMALZONE,2935.68,79.2,79.2,2.699E-002,37.045,0.300,0.700,AutoCalculate,HOTELLARGE ACTIVITY_SCH,Yes,3.8200E-008,0,79,Zone Averaged,WORK EFFICIENCY SCHEDULE,Clothing Insulation Schedule,N/A,CLOTHING SCHEDULE,AIR VELOCITY SCHEDULE,Yes,No,No
! <Lights Internal Gains Nominal>,Name,Schedule Name,Zone Name,Zone Floor Area {m2},# Zone Occupants,Lighting Level {W},Lights/Floor Area {W/m2},Lights per person {W/person},Fraction Return Air,Fraction Radiant,Fraction Short Wave,Fraction Convected,Fraction Replaceable,End-Use Category,Nominal Minimum Lighting Level {W},Nominal Maximum Lighting Level {W}
 Lights Internal Gains Nominal, BUILDING STORY 1 THERMALZONE LARGEHOTEL BANQUET LIGHTS 1,HOTELLARGE BLDG_LIGHT_SCH_2013,BUILDING STORY 1 THERMALZONE,2935.68,996.4,4857.569,1.655,4.875,0.000,0.700,0.200,0.100,1.000,General,0.000,4857.569
 Lights Internal Gains Nominal, BUILDING STORY 1 THERMALZONE LARGEHOTEL CAFE LIGHTS 1,HOTELLARGE BLDG_LIGHT_SCH_2013,BUILDING STORY 1 THERMALZONE,2935.68,996.4,5654.673,1.926,5.675,0.000,0.700,0.200,0.100,1.000,General,0.000,5654.673
 Lights Internal Gains Nominal, BUILDING STORY 1 THERMALZONE LARGEHOTEL KITCHEN LIGHTS 1,HOTELLARGE BLDG_LIGHT_SCH_2013,BUILDING STORY 1 THERMALZONE,2935.68,996.4,4214.404,1.436,4.230,0.000,0.700,0.200,0.100,1.000,General,0.000,4214.404
 Lights Internal Gains Nominal, BUILDING STORY 1 THERMALZONE LARGEHOTEL LAUNDRY LIGHTS 1,HOTELLARGE BLDG_LIGHT_SCH_2013,BUILDING STORY 1 THERMALZONE,2935.68,996.4,1584.564,0.540,1.590,0.000,0.700,0.200,0.100,1.000,General,0.000,1584.564
 Lights Internal Gains Nominal, BUILDING STORY 1 THERMALZONE LARGEHOTEL MECHANICAL LIGHTS 1,HOTELLARGE BLDG_LIGHT_MECHANIC_SCH_2013,BUILDING STORY 1 THERMALZONE,2935.68,996.4,5272.311,1.796,5.292,0.000,0.700,0.200,0.100,1.000,General,0.000,5272.311
 Lights Internal Gains Nominal, BUILDING STORY 1 THERMALZONE LARGEHOTEL RETAIL LIGHTS 1,HOTELLARGE BLDG_LIGHT_SCH_2013,BUILDING STORY 1 THERMALZONE,2935.68,996.4,6172.910,2.103,6.195,0.000,0.700,0.200,0.100,1.000,General,0.000,6172.910
 Lights Internal Gains Nominal, BUILDING STORY 1 THERMALZONE LARGEHOTEL STORAGE LIGHTS 1,HOTELLARGE BLDG_LIGHT_STORAGE_SCH_2013,BUILDING STORY 1 THERMALZONE,2935.68,996.4,2025.486,0.690,2.033,0.000,0.700,0.200,0.100,1.000,General,0.000,2025.486
 Lights Internal Gains Nominal, BUILDING STORY 4 THERMALZONE LARGEHOTEL BANQUET LIGHTS 2,HOTELLARGE BLDG_LIGHT_SCH_2013,BUILDING STORY 4 THERMALZONE,2935.68,1625.3,15070.045,5.133,9.272,0.000,0.700,0.200,0.100,1.000,General,0.000,15070.045
 Lights Internal Gains Nominal, BUILDING STORY 4 THERMALZONE LARGEHOTEL LOBBY LIGHTS 1,HOTELLARGE BLDG_LIGHT_SCH_2013,BUILDING STORY 4 THERMALZONE,2935.68,1625.3,15546.792,5.296,9.566,0.000,0.700,0.200,0.100,1.000,General,0.000,15546.792
 Lights Internal Gains Nominal, BUILDING STORY 2 THERMALZONE LARGEHOTEL CORRIDOR LIGHTS 1,HOTELLARGE BLDG_LIGHT_CORRIDOR_SCH_2013,BUILDING STORY 2 THERMALZONE,2935.68,889.3,419.369,0.143,0.472,0.000,0.700,0.200,0.100,1.000,General,0.000,419.369
 Lights Internal Gains Nominal, BUILDING STORY 2 THERMALZONE LARGEHOTEL GUESTROOM LIGHTS 1,HOTELLARGE BLDG_LIGHT_GUESTROOM_SCH_2013,BUILDING STORY 2 THERMALZONE,2935.68,889.3,1365.281,0.465,1.535,0.000,0.700,0.200,0.100,1.000,General,0.000,1365.281
 Lights Internal Gains Nominal, BUILDING STORY 2 THERMALZONE LARGEHOTEL LOBBY LIGHTS 2,HOTELLARGE BLDG_LIGHT_SCH_2013,BUILDING STORY 2 THERMALZONE,2935.68,889.3,31231.526,10.639,35.121,0.000,0.700,0.200,0.100,1.000,General,0.000,31231.526
 Lights Internal Gains Nominal, BUILDING STORY 6 THERMALZONE LARGEHOTEL CORRIDOR LIGHTS 2,HOTELLARGE BLDG_LIGHT_CORRIDOR_SCH_2013,BUILDING STORY 6 THERMALZONE,2935.68,79.2,6204.859,2.114,78.297,0.000,0.700,0.200,0.100,1.000,General,0.000,6204.859
 Lights Internal Gains Nominal, BUILDING STORY 6 THERMALZONE LARGEHOTEL GUESTROOM LIGHTS 2,HOTELLARGE BLDG_LIGHT_GUESTROOM_SCH_2013,BUILDING STORY 6 THERMALZONE,2935.68,79.2,20200.288,6.881,254.902,0.000,0.700,0.200,0.100,1.000,General,0.000,20200.288
 Lights Internal Gains Nominal, BUILDING STORY 3 THERMALZONE LARGEHOTEL CORRIDOR LIGHTS 3,HOTELLARGE BLDG_LIGHT_CORRIDOR_SCH_2013,BUILDING STORY 3 THERMALZONE,2935.68,79.2,6204.859,2.114,78.297,0.000,0.700,0.200,0.100,1.000,General,0.000,6204.859
 Lights Internal Gains Nominal, BUILDING STORY 3 THERMALZONE LARGEHOTEL GUESTROOM LIGHTS 3,HOTELLARGE BLDG_LIGHT_GUESTROOM_SCH_2013,BUILDING STORY 3 THERMALZONE,2935.68,79.2,20200.288,6.881,254.902,0.000,0.700,0.200,0.100,1.000,General,0.000,20200.288
 Lights Internal Gains Nominal, BUILDING STORY 5 THERMALZONE LARGEHOTEL CORRIDOR LIGHTS 4,HOTELLARGE BLDG_LIGHT_CORRIDOR_SCH_2013,BUILDING STORY 5 THERMALZONE,2935.68,79.2,6204.859,2.114,78.297,0.000,0.700,0.200,0.100,1.000,General,0.000,6204.859
 Lights Internal Gains Nominal, BUILDING STORY 5 THERMALZONE LARGEHOTEL GUESTROOM LIGHTS 4,HOTELLARGE BLDG_LIGHT_GUESTROOM_SCH_2013,BUILDING STORY 5 THERMALZONE,2935.68,79.2,20200.288,6.881,254.902,0.000,0.700,0.200,0.100,1.000,General,0.000,20200.288
 Lights Internal Gains Nominal, BUILDING STORY 7 THERMALZONE LARGEHOTEL CORRIDOR LIGHTS 5,HOTELLARGE BLDG_LIGHT_CORRIDOR_SCH_2013,BUILDING STORY 7 THERMALZONE,2935.68,79.2,6204.859,2.114,78.297,0.000,0.700,0.200,0.100,1.000,General,0.000,6204.859
 Lights Internal Gains Nominal, BUILDING STORY 7 THERMALZONE LARGEHOTEL GUESTROOM LIGHTS 5,HOTELLARGE BLDG_LIGHT_GUESTROOM_SCH_2013,BUILDING STORY 7 THERMALZONE,2935.68,79.2,20200.288,6.881,254.902,0.000,0.700,0.200,0.100,1.000,General,0.000,20200.288
 Lights Internal Gains Nominal, BUILDING STORY 8 THERMALZONE LARGEHOTEL CORRIDOR LIGHTS 6,HOTELLARGE BLDG_LIGHT_CORRIDOR_SCH_2013,BUILDING STORY 8 THERMALZONE,2935.68,79.2,6204.859,2.114,78.297,0.000,0.700,0.200,0.100,1.000,General,0.000,6204.859
 Lights Internal Gains Nominal, BUILDING STORY 8 THERMALZONE LARGEHOTEL GUESTROOM LIGHTS 6,HOTELLARGE BLDG_LIGHT_GUESTROOM_SCH_2013,BUILDING STORY 8 THERMALZONE,2935.68,79.2,20200.288,6.881,254.902,0.000,0.700,0.200,0.100,1.000,General,0.000,20200.288
 Lights Internal Gains Nominal, BUILDING STORY 9 THERMALZONE LARGEHOTEL CORRIDOR LIGHTS 7,HOTELLARGE BLDG_LIGHT_CORRIDOR_SCH_2013,BUILDING STORY 9 THERMALZONE,2935.68,79.2,6204.859,2.114,78.297,0.000,0.700,0.200,0.100,1.000,General,0.000,6204.859
 Lights Internal Gains Nominal, BUILDING STORY 9 THERMALZONE LARGEHOTEL GUESTROOM LIGHTS 7,HOTELLARGE BLDG_LIGHT_GUESTROOM_SCH_2013,BUILDING STORY 9 THERMALZONE,2935.68,79.2,20200.288,6.881,254.902,0.000,0.700,0.200,0.100,1.000,General,0.000,20200.288
 Lights Internal Gains Nominal, BUILDING STORY 10 THERMALZONE LARGEHOTEL CORRIDOR LIGHTS 8,HOTELLARGE BLDG_LIGHT_CORRIDOR_SCH_2013,BUILDING STORY 10 THERMALZONE,2935.68,79.2,6204.859,2.114,78.297,0.000,0.700,0.200,0.100,1.000,General,0.000,6204.859
 Lights Internal Gains Nominal, BUILDING STORY 10 THERMALZONE LARGEHOTEL GUESTROOM LIGHTS 8,HOTELLARGE BLDG_LIGHT_GUESTROOM_SCH_2013,BUILDING STORY 10 THERMALZONE,2935.68,79.2,20200.288,6.881,254.902,0.000,0.700,0.200,0.100,1.000,General,0.000,20200.288
! <ElectricEquipment Internal Gains Nominal>,Name,Schedule Name,Zone Name,Zone Floor Area {m2},# Zone Occupants,Equipment Level {W},Equipment/Floor Area {W/m2},Equipment per person {W/person},Fraction Latent,Fraction Radiant,Fraction Lost,Fraction Convected,End-Use SubCategory,Nominal Minimum Equipment Level {W},Nominal Maximum Equipment Level {W}
 ElectricEquipment Internal Gains Nominal, BUILDING STORY 1 THERMALZONE 13 ELEVATOR FANS,ELEVATOR SCHEDULE 3,BUILDING STORY 1 THERMALZONE,2935.68,996.4,402.238,0.137,0.404,0.000,0.500,0.000,0.500,Elevators,0.000,402.238
 ElectricEquipment Internal Gains Nominal, BUILDING STORY 1 THERMALZONE 13 ELEVATOR LIFT MOTORS,ELEVATOR SCHEDULE 1,BUILDING STORY 1 THERMALZONE,2935.68,996.4,264671.132,90.157,265.638,0.000,0.000,1.000,0.000,Elevators,0.000,264671.132
 ElectricEquipment Internal Gains Nominal, BUILDING STORY 1 THERMALZONE 13 ELEVATOR LIGHTS,ELEVATOR SCHEDULE 2,BUILDING STORY 1 THERMALZONE,2935.68,996.4,420.311,0.143,0.422,0.000,0.500,0.000,0.500,Elevators,0.000,420.311
 ElectricEquipment Internal Gains Nominal, BUILDING STORY 1 THERMALZONE LARGEHOTEL BANQUET ELEC EQUIP 1,HOTELLARGE KITCHEN_ELEC_EQUIP_SCH,BUILDING STORY 1 THERMALZONE,2935.68,996.4,34390.496,11.715,34.516,0.000,0.500,0.000,0.500,General,0.000,10317.149
 ElectricEquipment Internal Gains Nominal, BUILDING STORY 1 THERMALZONE LARGEHOTEL CAFE ELEC EQUIP 1,HOTELLARGE BLDG_EQUIP_SCH,BUILDING STORY 1 THERMALZONE,2935.68,996.4,3176.783,1.082,3.188,0.000,0.500,0.000,0.500,General,0.000,3176.783
 ElectricEquipment Internal Gains Nominal, BUILDING STORY 1 THERMALZONE LARGEHOTEL KITCHEN ELEC EQUIP 1,HOTELLARGE KITCHEN_ELEC_EQUIP_SCH,BUILDING STORY 1 THERMALZONE,2935.68,996.4,164396.597,55.999,164.997,0.200,0.500,0.100,0.200,General,0.000,49318.979
 ElectricEquipment Internal Gains Nominal, BUILDING STORY 1 THERMALZONE LARGEHOTEL LAUNDRY ELEC EQUIP 1,HOTELLARGE BLDG_EQUIP_SCH,BUILDING STORY 1 THERMALZONE,2935.68,996.4,15132.586,5.155,15.188,0.000,0.500,0.000,0.500,General,0.000,15132.586
 ElectricEquipment Internal Gains Nominal, BUILDING STORY 1 THERMALZONE LARGEHOTEL MECHANICAL ELEC EQUIP 1,HOTELLARGE BLDG_EQUIP_SCH,BUILDING STORY 1 THERMALZONE,2935.68,996.4,2774.901,0.945,2.785,0.000,0.500,0.000,0.500,General,0.000,2774.901
 ElectricEquipment Internal Gains Nominal, BUILDING STORY 1 THERMALZONE LARGEHOTEL RETAIL ELEC EQUIP 1,HOTELLARGE BLDG_EQUIP_SCH,BUILDING STORY 1 THERMALZONE,2935.68,996.4,4899.135,1.669,4.917,0.000,0.500,0.000,0.500,General,0.000,4899.135
 ElectricEquipment Internal Gains Nominal, BUILDING STORY 1 THERMALZONE LARGEHOTEL STORAGE ELEC EQUIP 1,HOTELLARGE BLDG_EQUIP_SCH,BUILDING STORY 1 THERMALZONE,2935.68,996.4,803.764,0.274,0.807,0.000,0.500,0.000,0.500,General,0.000,803.764
 ElectricEquipment Internal Gains Nominal, BUILDING STORY 4 THERMALZONE LARGEHOTEL BANQUET ELEC EQUIP 2,HOTELLARGE KITCHEN_ELEC_EQUIP_SCH,BUILDING STORY 4 THERMALZONE,2935.68,1625.3,106692.534,36.343,65.645,0.000,0.500,0.000,0.500,General,0.000,32007.760
 ElectricEquipment Internal Gains Nominal, BUILDING STORY 4 THERMALZONE LARGEHOTEL LOBBY ELEC EQUIP 1,HOTELLARGE BLDG_EQUIP_SCH,BUILDING STORY 4 THERMALZONE,2935.68,1625.3,11000.089,3.747,6.768,0.000,0.500,0.000,0.500,General,0.000,11000.089
 ElectricEquipment Internal Gains Nominal, BUILDING STORY 2 THERMALZONE LARGEHOTEL GUESTROOM ELEC EQUIP 1,HOTELLARGE GUESTROOM_EQP_SCH_ADVA,BUILDING STORY 2 THERMALZONE,2935.68,889.3,940.694,0.320,1.058,0.000,0.500,0.000,0.500,General,0.000,940.694
 ElectricEquipment Internal Gains Nominal, BUILDING STORY 2 THERMALZONE LARGEHOTEL LOBBY ELEC EQUIP 2,HOTELLARGE BLDG_EQUIP_SCH,BUILDING STORY 2 THERMALZONE,2935.68,889.3,22097.778,7.527,24.849,0.000,0.500,0.000,0.500,General,0.000,22097.778
 ElectricEquipment Internal Gains Nominal, BUILDING STORY 6 THERMALZONE LARGEHOTEL GUESTROOM ELEC EQUIP 2,HOTELLARGE GUESTROOM_EQP_SCH_ADVA,BUILDING STORY 6 THERMALZONE,2935.68,79.2,13918.221,4.741,175.630,0.000,0.500,0.000,0.500,General,0.000,13918.221
 ElectricEquipment Internal Gains Nominal, BUILDING STORY 3 THERMALZONE LARGEHOTEL GUESTROOM ELEC EQUIP 3,HOTELLARGE GUESTROOM_EQP_SCH_ADVA,BUILDING STORY 3 THERMALZONE,2935.68,79.2,13918.221,4.741,175.630,0.000,0.500,0.000,0.500,General,0.000,13918.221
 ElectricEquipment Internal Gains Nominal, BUILDING STORY 5 THERMALZONE LARGEHOTEL GUESTROOM ELEC EQUIP 4,HOTELLARGE GUESTROOM_EQP_SCH_ADVA,BUILDING STORY 5 THERMALZONE,2935.68,79.2,13918.221,4.741,175.630,0.000,0.500,0.000,0.500,General,0.000,13918.221
 ElectricEquipment Internal Gains Nominal, BUILDING STORY 7 THERMALZONE LARGEHOTEL GUESTROOM ELEC EQUIP 5,HOTELLARGE GUESTROOM_EQP_SCH_ADVA,BUILDING STORY 7 THERMALZONE,2935.68,79.2,13918.221,4.741,175.630,0.000,0.500,0.000,0.500,General,0.000,13918.221
 ElectricEquipment Internal Gains Nominal, BUILDING STORY 8 THERMALZONE LARGEHOTEL GUESTROOM ELEC EQUIP 6,HOTELLARGE GUESTROOM_EQP_SCH_ADVA,BUILDING STORY 8 THERMALZONE,2935.68,79.2,13918.221,4.741,175.630,0.000,0.500,0.000,0.500,General,0.000,13918.221
 ElectricEquipment Internal Gains Nominal, BUILDING STORY 9 THERMALZONE LARGEHOTEL GUESTROOM ELEC EQUIP 7,HOTELLARGE GUESTROOM_EQP_SCH_ADVA,BUILDING STORY 9 THERMALZONE,2935.68,79.2,13918.221,4.741,175.630,0.000,0.500,0.000,0.500,General,0.000,13918.221
 ElectricEquipment Internal Gains Nominal, BUILDING STORY 10 THERMALZONE LARGEHOTEL GUESTROOM ELEC EQUIP 8,HOTELLARGE GUESTROOM_EQP_SCH_ADVA,BUILDING STORY 10 THERMALZONE,2935.68,79.2,13918.221,4.741,175.630,0.000,0.500,0.000,0.500,General,0.000,13918.221
! <GasEquipment Internal Gains Nominal>,Name,Schedule Name,Zone Name,Zone Floor Area {m2},# Zone Occupants,Equipment Level {W},Equipment/Floor Area {W/m2},Equipment per person {W/person},Fraction Latent,Fraction Radiant,Fraction Lost,Fraction Convected,End-Use SubCategory,Nominal Minimum Equipment Level {W},Nominal Maximum Equipment Level {W}
 GasEquipment Internal Gains Nominal, BUILDING STORY 1 THERMALZONE LARGEHOTEL KITCHEN GAS EQUIP 1,HOTELLARGE KITCHEN_GAS_EQUIP_SCH,BUILDING STORY 1 THERMALZONE,2935.68,996.4,782923.156,266.692,785.782,0.100,0.200,0.700,0.000,General,0.000,234876.947
 GasEquipment Internal Gains Nominal, BUILDING STORY 1 THERMALZONE LARGEHOTEL LAUNDRY GAS EQUIP 1,HOTELLARGE BLDG_EQUIP_SCH,BUILDING STORY 1 THERMALZONE,2935.68,996.4,131577.125,44.820,132.058,0.000,0.500,0.000,0.500,General,0.000,131577.125
! <Shadowing/Sun Position Calculations Annual Simulations>, Calculation Method, Value {days}, Allowable Number Figures in Shadow Overlap {}, Polygon Clipping Algorithm, Sky Diffuse Modeling Algorithm, External Shading Calculation Method, Output External Shading Calculation Results, Disable Self-Shading Within Shading Zone Groups, Disable Self-Shading From Shading Zone Groups to Other Zones
Shadowing/Sun Position Calculations Annual Simulations,AverageOverDaysInFrequency,20,15000,SutherlandHodgman,SimpleSkyDiffuseModeling,InternalCalculation,No,No,No
! <Zone/Window Adjacency Daylighting Counts>, Zone Name, Number of Exterior Windows, Number of Exterior Windows in Adjacent Zones
Zone/Window Adjacency Daylighting Counts, BUILDING STORY 1 THERMALZONE,4,0
Zone/Window Adjacency Daylighting Counts, BUILDING STORY 10 THERMALZONE,4,0
Zone/Window Adjacency Daylighting Counts, BUILDING STORY 2 THERMALZONE,4,0
Zone/Window Adjacency Daylighting Counts, BUILDING STORY 3 THERMALZONE,4,0
Zone/Window Adjacency Daylighting Counts, BUILDING STORY 4 THERMALZONE,4,0
Zone/Window Adjacency Daylighting Counts, BUILDING STORY 5 THERMALZONE,4,0
Zone/Window Adjacency Daylighting Counts, BUILDING STORY 6 THERMALZONE,4,0
Zone/Window Adjacency Daylighting Counts, BUILDING STORY 7 THERMALZONE,4,0
Zone/Window Adjacency Daylighting Counts, BUILDING STORY 8 THERMALZONE,4,0
Zone/Window Adjacency Daylighting Counts, BUILDING STORY 9 THERMALZONE,4,0
! <Zone/Window Adjacency Daylighting Matrix>, Zone Name, Number of Adjacent Zones with Windows,Adjacent Zone Names - 1st 100 (max)
Zone/Window Adjacency Daylighting Matrix, BUILDING STORY 1 THERMALZONE,0
Zone/Window Adjacency Daylighting Matrix, BUILDING STORY 10 THERMALZONE,0
Zone/Window Adjacency Daylighting Matrix, BUILDING STORY 2 THERMALZONE,0
Zone/Window Adjacency Daylighting Matrix, BUILDING STORY 3 THERMALZONE,0
Zone/Window Adjacency Daylighting Matrix, BUILDING STORY 4 THERMALZONE,0
Zone/Window Adjacency Daylighting Matrix, BUILDING STORY 5 THERMALZONE,0
Zone/Window Adjacency Daylighting Matrix, BUILDING STORY 6 THERMALZONE,0
Zone/Window Adjacency Daylighting Matrix, BUILDING STORY 7 THERMALZONE,0
Zone/Window Adjacency Daylighting Matrix, BUILDING STORY 8 THERMALZONE,0
Zone/Window Adjacency Daylighting Matrix, BUILDING STORY 9 THERMALZONE,0
! <Water Heater Information>,Type,Name,Volume {m3},Maximum Capacity {W},Standard Rated Recovery Efficiency, Standard Rated Energy Factor
! <ZoneInfiltration Airflow Stats Nominal>,Name,Schedule Name,Zone Name, Zone Floor Area {m2}, # Zone Occupants,Design Volume Flow Rate {m3/s},Volume Flow Rate/Floor Area {m3/s-m2},Volume Flow Rate/Exterior Surface Area {m3/s-m2},ACH - Air Changes per Hour,Equation A - Constant Term Coefficient {},Equation B - Temperature Term Coefficient {1/C},Equation C - Velocity Term Coefficient {s/m}, Equation D - Velocity Squared Term Coefficient {s2/m2}
 ZoneInfiltration Airflow Stats Nominal, BUILDING STORY 1 THERMALZONE LARGEHOTEL BANQUET A  - STORY GROUND INFILTRATION,ALWAYS ON DISCRETE,BUILDING STORY 1 THERMALZONE,2935.68,996.4,2.681E-002,9.132E-006,4.113E-005,1.096E-002,0.000,0.000,0.224,0.000
 ZoneInfiltration Airflow Stats Nominal, BUILDING STORY 1 THERMALZONE LARGEHOTEL BANQUET C  - STORY GROUND INFILTRATION,ALWAYS ON DISCRETE,BUILDING STORY 1 THERMALZONE,2935.68,996.4,2.681E-002,9.132E-006,4.113E-005,1.096E-002,0.000,0.000,0.224,0.000
 ZoneInfiltration Airflow Stats Nominal, BUILDING STORY 1 THERMALZONE LARGEHOTEL CAFE A  - STORY GROUND INFILTRATION,ALWAYS ON DISCRETE,BUILDING STORY 1 THERMALZONE,2935.68,996.4,2.541E-002,8.655E-006,3.898E-005,1.039E-002,0.000,0.000,0.224,0.000
 ZoneInfiltration Airflow Stats Nominal, BUILDING STORY 1 THERMALZONE LARGEHOTEL CAFE A END_A - STORY GROUND INFILTRATION,ALWAYS ON DISCRETE,BUILDING STORY 1 THERMALZONE,2935.68,996.4,1.160E-002,3.950E-006,1.779E-005,4.740E-003,0.000,0.000,0.224,0.000
 ZoneInfiltration Airflow Stats Nominal, BUILDING STORY 1 THERMALZONE LARGEHOTEL CAFE B END_A - STORY GROUND INFILTRATION,ALWAYS ON DISCRETE,BUILDING STORY 1 THERMALZONE,2935.68,996.4,1.884E-002,6.417E-006,2.890E-005,7.700E-003,0.000,0.000,0.224,0.000
 ZoneInfiltration Airflow Stats Nominal, BUILDING STORY 1 THERMALZONE LARGEHOTEL CAFE C  - STORY GROUND INFILTRATION,ALWAYS ON DISCRETE,BUILDING STORY 1 THERMALZONE,2935.68,996.4,2.541E-002,8.655E-006,3.898E-005,1.039E-002,0.000,0.000,0.224,0.000
 ZoneInfiltration Airflow Stats Nominal, BUILDING STORY 1 THERMALZONE LARGEHOTEL CAFE C END_A - STORY GROUND INFILTRATION,ALWAYS ON DISCRETE,BUILDING STORY 1 THERMALZONE,2935.68,996.4,1.160E-002,3.950E-006,1.779E-005,4.740E-003,0.000,0.000,0.224,0.000
 ZoneInfiltration Airflow Stats Nominal, BUILDING STORY 1 THERMALZONE LARGEHOTEL KITCHEN A  - STORY GROUND INFILTRATION,ALWAYS ON DISCRETE,BUILDING STORY 1 THERMALZONE,2935.68,996.4,1.711E-002,5.827E-006,2.624E-005,6.993E-003,0.000,0.000,0.224,0.000
 ZoneInfiltration Airflow Stats Nominal, BUILDING STORY 1 THERMALZONE LARGEHOTEL KITCHEN C  - STORY GROUND INFILTRATION,ALWAYS ON DISCRETE,BUILDING STORY 1 THERMALZONE,2935.68,996.4,1.711E-002,5.827E-006,2.624E-005,6.993E-003,0.000,0.000,0.224,0.000
 ZoneInfiltration Airflow Stats Nominal, BUILDING STORY 1 THERMALZONE LARGEHOTEL LAUNDRY A  - STORY GROUND INFILTRATION,ALWAYS ON DISCRETE,BUILDING STORY 1 THERMALZONE,2935.68,996.4,1.297E-002,4.419E-006,1.990E-005,5.302E-003,0.000,0.000,0.224,0.000
 ZoneInfiltration Airflow Stats Nominal, BUILDING STORY 1 THERMALZONE LARGEHOTEL LAUNDRY C  - STORY GROUND INFILTRATION,ALWAYS ON DISCRETE,BUILDING STORY 1 THERMALZONE,2935.68,996.4,1.297E-002,4.419E-006,1.990E-005,5.302E-003,0.000,0.000,0.224,0.000
 ZoneInfiltration Airflow Stats Nominal, BUILDING STORY 1 THERMALZONE LARGEHOTEL MECHANICAL A  - STORY GROUND INFILTRATION,ALWAYS ON DISCRETE,BUILDING STORY 1 THERMALZONE,2935.68,996.4,2.146E-002,7.310E-006,3.292E-005,8.773E-003,0.000,0.000,0.224,0.000
 ZoneInfiltration Airflow Stats Nominal, BUILDING STORY 1 THERMALZONE LARGEHOTEL MECHANICAL A END_B - STORY GROUND INFILTRATION,ALWAYS ON DISCRETE,BUILDING STORY 1 THERMALZONE,2935.68,996.4,1.160E-002,3.950E-006,1.779E-005,4.740E-003,0.000,0.000,0.224,0.000
 ZoneInfiltration Airflow Stats Nominal, BUILDING STORY 1 THERMALZONE LARGEHOTEL MECHANICAL B END_B - STORY GROUND INFILTRATION,ALWAYS ON DISCRETE,BUILDING STORY 1 THERMALZONE,2935.68,996.4,1.884E-002,6.417E-006,2.890E-005,7.700E-003,0.000,0.000,0.224,0.000
 ZoneInfiltration Airflow Stats Nominal, BUILDING STORY 1 THERMALZONE LARGEHOTEL MECHANICAL C  - STORY GROUND INFILTRATION,ALWAYS ON DISCRETE,BUILDING STORY 1 THERMALZONE,2935.68,996.4,2.146E-002,7.310E-006,3.292E-005,8.773E-003,0.000,0.000,0.224,0.000
 ZoneInfiltration Airflow Stats Nominal, BUILDING STORY 1 THERMALZONE LARGEHOTEL MECHANICAL C END_B - STORY GROUND INFILTRATION,ALWAYS ON DISCRETE,BUILDING STORY 1 THERMALZONE,2935.68,996.4,1.160E-002,3.950E-006,1.779E-005,4.740E-003,0.000,0.000,0.224,0.000
 ZoneInfiltration Airflow Stats Nominal, BUILDING STORY 1 THERMALZONE LARGEHOTEL RETAIL A  - STORY GROUND INFILTRATION,ALWAYS ON DISCRETE,BUILDING STORY 1 THERMALZONE,2935.68,996.4,2.406E-002,8.197E-006,3.691E-005,9.836E-003,0.000,0.000,0.224,0.000
 ZoneInfiltration Airflow Stats Nominal, BUILDING STORY 1 THERMALZONE LARGEHOTEL RETAIL C  - STORY GROUND INFILTRATION,ALWAYS ON DISCRETE,BUILDING STORY 1 THERMALZONE,2935.68,996.4,2.406E-002,8.197E-006,3.691E-005,9.836E-003,0.000,0.000,0.224,0.000
 ZoneInfiltration Airflow Stats Nominal, BUILDING STORY 1 THERMALZONE LARGEHOTEL STORAGE A  - STORY GROUND INFILTRATION,ALWAYS ON DISCRETE,BUILDING STORY 1 THERMALZONE,2935.68,996.4,1.579E-002,5.379E-006,2.423E-005,6.455E-003,0.000,0.000,0.224,0.000
 ZoneInfiltration Airflow Stats Nominal, BUILDING STORY 1 THERMALZONE LARGEHOTEL STORAGE C  - STORY GROUND INFILTRATION,ALWAYS ON DISCRETE,BUILDING STORY 1 THERMALZONE,2935.68,996.4,1.579E-002,5.379E-006,2.423E-005,6.455E-003,0.000,0.000,0.224,0.000
 ZoneInfiltration Airflow Stats Nominal, BUILDING STORY 4 THERMALZONE LARGEHOTEL BANQUET A  - STORY MID INFILTRATION,ALWAYS ON DISCRETE,BUILDING STORY 4 THERMALZONE,2935.68,1625.3,7.737E-002,2.636E-005,1.187E-004,3.163E-002,0.000,0.000,0.224,0.000
 ZoneInfiltration Airflow Stats Nominal, BUILDING STORY 4 THERMALZONE LARGEHOTEL BANQUET A END_A - STORY MID INFILTRATION,ALWAYS ON DISCRETE,BUILDING STORY 4 THERMALZONE,2935.68,1625.3,1.160E-002,3.950E-006,1.779E-005,4.740E-003,0.000,0.000,0.224,0.000
 ZoneInfiltration Airflow Stats Nominal, BUILDING STORY 4 THERMALZONE LARGEHOTEL BANQUET B END_A - STORY MID INFILTRATION,ALWAYS ON DISCRETE,BUILDING STORY 4 THERMALZONE,2935.68,1625.3,1.884E-002,6.417E-006,2.890E-005,7.700E-003,0.000,0.000,0.224,0.000
 ZoneInfiltration Airflow Stats Nominal, BUILDING STORY 4 THERMALZONE LARGEHOTEL BANQUET C  - STORY MID INFILTRATION,ALWAYS ON DISCRETE,BUILDING STORY 4 THERMALZONE,2935.68,1625.3,7.737E-002,2.636E-005,1.187E-004,3.163E-002,0.000,0.000,0.224,0.000
 ZoneInfiltration Airflow Stats Nominal, BUILDING STORY 4 THERMALZONE LARGEHOTEL BANQUET C END_A - STORY MID INFILTRATION,ALWAYS ON DISCRETE,BUILDING STORY 4 THERMALZONE,2935.68,1625.3,1.160E-002,3.950E-006,1.779E-005,4.740E-003,0.000,0.000,0.224,0.000
 ZoneInfiltration Airflow Stats Nominal, BUILDING STORY 4 THERMALZONE LARGEHOTEL LOBBY A  - STORY MID INFILTRATION,ALWAYS ON DISCRETE,BUILDING STORY 4 THERMALZONE,2935.68,1625.3,6.624E-002,2.256E-005,1.016E-004,2.708E-002,0.000,0.000,0.224,0.000
 ZoneInfiltration Airflow Stats Nominal, BUILDING STORY 4 THERMALZONE LARGEHOTEL LOBBY A END_B - STORY MID INFILTRATION,ALWAYS ON DISCRETE,BUILDING STORY 4 THERMALZONE,2935.68,1625.3,1.160E-002,3.950E-006,1.779E-005,4.740E-003,0.000,0.000,0.224,0.000
 ZoneInfiltration Airflow Stats Nominal, BUILDING STORY 4 THERMALZONE LARGEHOTEL LOBBY B END_B - STORY MID INFILTRATION,ALWAYS ON DISCRETE,BUILDING STORY 4 THERMALZONE,2935.68,1625.3,1.884E-002,6.417E-006,2.890E-005,7.700E-003,0.000,0.000,0.224,0.000
 ZoneInfiltration Airflow Stats Nominal, BUILDING STORY 4 THERMALZONE LARGEHOTEL LOBBY C  - STORY MID INFILTRATION,ALWAYS ON DISCRETE,BUILDING STORY 4 THERMALZONE,2935.68,1625.3,6.624E-002,2.256E-005,1.016E-004,2.708E-002,0.000,0.000,0.224,0.000
 ZoneInfiltration Airflow Stats Nominal, BUILDING STORY 4 THERMALZONE LARGEHOTEL LOBBY C END_B - STORY MID INFILTRATION,ALWAYS ON DISCRETE,BUILDING STORY 4 THERMALZONE,2935.68,1625.3,1.160E-002,3.950E-006,1.779E-005,4.740E-003,0.000,0.000,0.224,0.000
 ZoneInfiltration Airflow Stats Nominal, BUILDING STORY 2 THERMALZONE LARGEHOTEL CORRIDOR B END_B - STORY MID2 INFILTRATION,ALWAYS ON DISCRETE,BUILDING STORY 2 THERMALZONE,2935.68,889.3,9.054E-003,3.084E-006,1.389E-005,3.701E-003,0.000,0.000,0.224,0.000
 ZoneInfiltration Airflow Stats Nominal, BUILDING STORY 2 THERMALZONE LARGEHOTEL GUESTROOM A  - STORY MID2 INFILTRATION,ALWAYS ON DISCRETE,BUILDING STORY 2 THERMALZONE,2935.68,889.3,4.692E-003,1.598E-006,7.198E-006,1.918E-003,0.000,0.000,0.224,0.000
 ZoneInfiltration Airflow Stats Nominal, BUILDING STORY 2 THERMALZONE LARGEHOTEL GUESTROOM A END_B - STORY MID2 INFILTRATION,ALWAYS ON DISCRETE,BUILDING STORY 2 THERMALZONE,2935.68,889.3,1.649E-002,5.616E-006,2.529E-005,6.739E-003,0.000,0.000,0.224,0.000
 ZoneInfiltration Airflow Stats Nominal, BUILDING STORY 2 THERMALZONE LARGEHOTEL GUESTROOM C  - STORY MID2 INFILTRATION,ALWAYS ON DISCRETE,BUILDING STORY 2 THERMALZONE,2935.68,889.3,4.692E-003,1.598E-006,7.198E-006,1.918E-003,0.000,0.000,0.224,0.000
 ZoneInfiltration Airflow Stats Nominal, BUILDING STORY 2 THERMALZONE LARGEHOTEL GUESTROOM C END_B - STORY MID2 INFILTRATION,ALWAYS ON DISCRETE,BUILDING STORY 2 THERMALZONE,2935.68,889.3,1.649E-002,5.616E-006,2.529E-005,6.739E-003,0.000,0.000,0.224,0.000
 ZoneInfiltration Airflow Stats Nominal, BUILDING STORY 2 THERMALZONE LARGEHOTEL LOBBY A  - STORY MID2 INFILTRATION,ALWAYS ON DISCRETE,BUILDING STORY 2 THERMALZONE,2935.68,889.3,0.139,4.732E-005,2.131E-004,5.679E-002,0.000,0.000,0.224,0.000
 ZoneInfiltration Airflow Stats Nominal, BUILDING STORY 2 THERMALZONE LARGEHOTEL LOBBY A END_A - STORY MID2 INFILTRATION,ALWAYS ON DISCRETE,BUILDING STORY 2 THERMALZONE,2935.68,889.3,1.160E-002,3.950E-006,1.779E-005,4.740E-003,0.000,0.000,0.224,0.000
 ZoneInfiltration Airflow Stats Nominal, BUILDING STORY 2 THERMALZONE LARGEHOTEL LOBBY B END_A - STORY MID2 INFILTRATION,ALWAYS ON DISCRETE,BUILDING STORY 2 THERMALZONE,2935.68,889.3,1.884E-002,6.417E-006,2.890E-005,7.700E-003,0.000,0.000,0.224,0.000
 ZoneInfiltration Airflow Stats Nominal, BUILDING STORY 2 THERMALZONE LARGEHOTEL LOBBY C  - STORY MID2 INFILTRATION,ALWAYS ON DISCRETE,BUILDING STORY 2 THERMALZONE,2935.68,889.3,0.139,4.732E-005,2.131E-004,5.679E-002,0.000,0.000,0.224,0.000
 ZoneInfiltration Airflow Stats Nominal, BUILDING STORY 2 THERMALZONE LARGEHOTEL LOBBY C END_A - STORY MID2 INFILTRATION,ALWAYS ON DISCRETE,BUILDING STORY 2 THERMALZONE,2935.68,889.3,1.160E-002,3.950E-006,1.779E-005,4.740E-003,0.000,0.000,0.224,0.000
 ZoneInfiltration Airflow Stats Nominal, BUILDING STORY 6 THERMALZONE LARGEHOTEL CORRIDOR B END_A - STORY MID3 INFILTRATION,ALWAYS ON DISCRETE,BUILDING STORY 6 THERMALZONE,2935.68,79.2,9.054E-003,3.084E-006,1.389E-005,3.701E-003,0.000,0.000,0.224,0.000
 ZoneInfiltration Airflow Stats Nominal, BUILDING STORY 6 THERMALZONE LARGEHOTEL CORRIDOR B END_B - STORY MID3 INFILTRATION,ALWAYS ON DISCRETE,BUILDING STORY 6 THERMALZONE,2935.68,79.2,9.054E-003,3.084E-006,1.389E-005,3.701E-003,0.000,0.000,0.224,0.000
 ZoneInfiltration Airflow Stats Nominal, BUILDING STORY 6 THERMALZONE LARGEHOTEL GUESTROOM A  - STORY MID3 INFILTRATION,ALWAYS ON DISCRETE,BUILDING STORY 6 THERMALZONE,2935.68,79.2,0.144,4.892E-005,2.203E-004,5.870E-002,0.000,0.000,0.224,0.000
 ZoneInfiltration Airflow Stats Nominal, BUILDING STORY 6 THERMALZONE LARGEHOTEL GUESTROOM A END_A - STORY MID3 INFILTRATION,ALWAYS ON DISCRETE,BUILDING STORY 6 THERMALZONE,2935.68,79.2,1.649E-002,5.616E-006,2.529E-005,6.739E-003,0.000,0.000,0.224,0.000
 ZoneInfiltration Airflow Stats Nominal, BUILDING STORY 6 THERMALZONE LARGEHOTEL GUESTROOM A END_B - STORY MID3 INFILTRATION,ALWAYS ON DISCRETE,BUILDING STORY 6 THERMALZONE,2935.68,79.2,1.649E-002,5.616E-006,2.529E-005,6.739E-003,0.000,0.000,0.224,0.000
 ZoneInfiltration Airflow Stats Nominal, BUILDING STORY 6 THERMALZONE LARGEHOTEL GUESTROOM C  - STORY MID3 INFILTRATION,ALWAYS ON DISCRETE,BUILDING STORY 6 THERMALZONE,2935.68,79.2,0.144,4.892E-005,2.203E-004,5.870E-002,0.000,0.000,0.224,0.000
 ZoneInfiltration Airflow Stats Nominal, BUILDING STORY 6 THERMALZONE LARGEHOTEL GUESTROOM C END_A - STORY MID3 INFILTRATION,ALWAYS ON DISCRETE,BUILDING STORY 6 THERMALZONE,2935.68,79.2,1.649E-002,5.616E-006,2.529E-005,6.739E-003,0.000,0.000,0.224,0.000
 ZoneInfiltration Airflow Stats Nominal, BUILDING STORY 6 THERMALZONE LARGEHOTEL GUESTROOM C END_B - STORY MID3 INFILTRATION,ALWAYS ON DISCRETE,BUILDING STORY 6 THERMALZONE,2935.68,79.2,1.649E-002,5.616E-006,2.529E-005,6.739E-003,0.000,0.000,0.224,0.000
 ZoneInfiltration Airflow Stats Nominal, BUILDING STORY 3 THERMALZONE LARGEHOTEL CORRIDOR B END_A - STORY MID4 INFILTRATION,ALWAYS ON DISCRETE,BUILDING STORY 3 THERMALZONE,2935.68,79.2,9.054E-003,3.084E-006,1.389E-005,3.701E-003,0.000,0.000,0.224,0.000
 ZoneInfiltration Airflow Stats Nominal, BUILDING STORY 3 THERMALZONE LARGEHOTEL CORRIDOR B END_B - STORY MID4 INFILTRATION,ALWAYS ON DISCRETE,BUILDING STORY 3 THERMALZONE,2935.68,79.2,9.054E-003,3.084E-006,1.389E-005,3.701E-003,0.000,0.000,0.224,0.000
 ZoneInfiltration Airflow Stats Nominal, BUILDING STORY 3 THERMALZONE LARGEHOTEL GUESTROOM A  - STORY MID4 INFILTRATION,ALWAYS ON DISCRETE,BUILDING STORY 3 THERMALZONE,2935.68,79.2,0.144,4.892E-005,2.203E-004,5.870E-002,0.000,0.000,0.224,0.000
 ZoneInfiltration Airflow Stats Nominal, BUILDING STORY 3 THERMALZONE LARGEHOTEL GUESTROOM A END_A - STORY MID4 INFILTRATION,ALWAYS ON DISCRETE,BUILDING STORY 3 THERMALZONE,2935.68,79.2,1.649E-002,5.616E-006,2.529E-005,6.739E-003,0.000,0.000,0.224,0.000
 ZoneInfiltration Airflow Stats Nominal, BUILDING STORY 3 THERMALZONE LARGEHOTEL GUESTROOM A END_B - STORY MID4 INFILTRATION,ALWAYS ON DISCRETE,BUILDING STORY 3 THERMALZONE,2935.68,79.2,1.649E-002,5.616E-006,2.529E-005,6.739E-003,0.000,0.000,0.224,0.000
 ZoneInfiltration Airflow Stats Nominal, BUILDING STORY 3 THERMALZONE LARGEHOTEL GUESTROOM C  - STORY MID4 INFILTRATION,ALWAYS ON DISCRETE,BUILDING STORY 3 THERMALZONE,2935.68,79.2,0.144,4.892E-005,2.203E-004,5.870E-002,0.000,0.000,0.224,0.000
 ZoneInfiltration Airflow Stats Nominal, BUILDING STORY 3 THERMALZONE LARGEHOTEL GUESTROOM C END_A - STORY MID4 INFILTRATION,ALWAYS ON DISCRETE,BUILDING STORY 3 THERMALZONE,2935.68,79.2,1.649E-002,5.616E-006,2.529E-005,6.739E-003,0.000,0.000,0.224,0.000
 ZoneInfiltration Airflow Stats Nominal, BUILDING STORY 3 THERMALZONE LARGEHOTEL GUESTROOM C END_B - STORY MID4 INFILTRATION,ALWAYS ON DISCRETE,BUILDING STORY 3 THERMALZONE,2935.68,79.2,1.649E-002,5.616E-006,2.529E-005,6.739E-003,0.000,0.000,0.224,0.000
 ZoneInfiltration Airflow Stats Nominal, BUILDING STORY 5 THERMALZONE LARGEHOTEL CORRIDOR B END_A - STORY MID5 INFILTRATION,ALWAYS ON DISCRETE,BUILDING STORY 5 THERMALZONE,2935.68,79.2,9.054E-003,3.084E-006,1.389E-005,3.701E-003,0.000,0.000,0.224,0.000
 ZoneInfiltration Airflow Stats Nominal, BUILDING STORY 5 THERMALZONE LARGEHOTEL CORRIDOR B END_B - STORY MID5 INFILTRATION,ALWAYS ON DISCRETE,BUILDING STORY 5 THERMALZONE,2935.68,79.2,9.054E-003,3.084E-006,1.389E-005,3.701E-003,0.000,0.000,0.224,0.000
 ZoneInfiltration Airflow Stats Nominal, BUILDING STORY 5 THERMALZONE LARGEHOTEL GUESTROOM A  - STORY MID5 INFILTRATION,ALWAYS ON DISCRETE,BUILDING STORY 5 THERMALZONE,2935.68,79.2,0.144,4.892E-005,2.203E-004,5.870E-002,0.000,0.000,0.224,0.000
 ZoneInfiltration Airflow Stats Nominal, BUILDING STORY 5 THERMALZONE LARGEHOTEL GUESTROOM A END_A - STORY MID5 INFILTRATION,ALWAYS ON DISCRETE,BUILDING STORY 5 THERMALZONE,2935.68,79.2,1.649E-002,5.616E-006,2.529E-005,6.739E-003,0.000,0.000,0.224,0.000
 ZoneInfiltration Airflow Stats Nominal, BUILDING STORY 5 THERMALZONE LARGEHOTEL GUESTROOM A END_B - STORY MID5 INFILTRATION,ALWAYS ON DISCRETE,BUILDING STORY 5 THERMALZONE,2935.68,79.2,1.649E-002,5.616E-006,2.529E-005,6.739E-003,0.000,0.000,0.224,0.000
 ZoneInfiltration Airflow Stats Nominal, BUILDING STORY 5 THERMALZONE LARGEHOTEL GUESTROOM C  - STORY MID5 INFILTRATION,ALWAYS ON DISCRETE,BUILDING STORY 5 THERMALZONE,2935.68,79.2,0.144,4.892E-005,2.203E-004,5.870E-002,0.000,0.000,0.224,0.000
 ZoneInfiltration Airflow Stats Nominal, BUILDING STORY 5 THERMALZONE LARGEHOTEL GUESTROOM C END_A - STORY MID5 INFILTRATION,ALWAYS ON DISCRETE,BUILDING STORY 5 THERMALZONE,2935.68,79.2,1.649E-002,5.616E-006,2.529E-005,6.739E-003,0.000,0.000,0.224,0.000
 ZoneInfiltration Airflow Stats Nominal, BUILDING STORY 5 THERMALZONE LARGEHOTEL GUESTROOM C END_B - STORY MID5 INFILTRATION,ALWAYS ON DISCRETE,BUILDING STORY 5 THERMALZONE,2935.68,79.2,1.649E-002,5.616E-006,2.529E-005,6.739E-003,0.000,0.000,0.224,0.000
 ZoneInfiltration Airflow Stats Nominal, BUILDING STORY 7 THERMALZONE LARGEHOTEL CORRIDOR B END_A - STORY MID6 INFILTRATION,ALWAYS ON DISCRETE,BUILDING STORY 7 THERMALZONE,2935.68,79.2,9.054E-003,3.084E-006,1.389E-005,3.701E-003,0.000,0.000,0.224,0.000
 ZoneInfiltration Airflow Stats Nominal, BUILDING STORY 7 THERMALZONE LARGEHOTEL CORRIDOR B END_B - STORY MID6 INFILTRATION,ALWAYS ON DISCRETE,BUILDING STORY 7 THERMALZONE,2935.68,79.2,9.054E-003,3.084E-006,1.389E-005,3.701E-003,0.000,0.000,0.224,0.000
 ZoneInfiltration Airflow Stats Nominal, BUILDING STORY 7 THERMALZONE LARGEHOTEL GUESTROOM A  - STORY MID6 INFILTRATION,ALWAYS ON DISCRETE,BUILDING STORY 7 THERMALZONE,2935.68,79.2,0.144,4.892E-005,2.203E-004,5.870E-002,0.000,0.000,0.224,0.000
 ZoneInfiltration Airflow Stats Nominal, BUILDING STORY 7 THERMALZONE LARGEHOTEL GUESTROOM A END_A - STORY MID6 INFILTRATION,ALWAYS ON DISCRETE,BUILDING STORY 7 THERMALZONE,2935.68,79.2,1.649E-002,5.616E-006,2.529E-005,6.739E-003,0.000,0.000,0.224,0.000
 ZoneInfiltration Airflow Stats Nominal, BUILDING STORY 7 THERMALZONE LARGEHOTEL GUESTROOM A END_B - STORY MID6 INFILTRATION,ALWAYS ON DISCRETE,BUILDING STORY 7 THERMALZONE,2935.68,79.2,1.649E-002,5.616E-006,2.529E-005,6.739E-003,0.000,0.000,0.224,0.000
 ZoneInfiltration Airflow Stats Nominal, BUILDING STORY 7 THERMALZONE LARGEHOTEL GUESTROOM C  - STORY MID6 INFILTRATION,ALWAYS ON DISCRETE,BUILDING STORY 7 THERMALZONE,2935.68,79.2,0.144,4.892E-005,2.203E-004,5.870E-002,0.000,0.000,0.224,0.000
 ZoneInfiltration Airflow Stats Nominal, BUILDING STORY 7 THERMALZONE LARGEHOTEL GUESTROOM C END_A - STORY MID6 INFILTRATION,ALWAYS ON DISCRETE,BUILDING STORY 7 THERMALZONE,2935.68,79.2,1.649E-002,5.616E-006,2.529E-005,6.739E-003,0.000,0.000,0.224,0.000
 ZoneInfiltration Airflow Stats Nominal, BUILDING STORY 7 THERMALZONE LARGEHOTEL GUESTROOM C END_B - STORY MID6 INFILTRATION,ALWAYS ON DISCRETE,BUILDING STORY 7 THERMALZONE,2935.68,79.2,1.649E-002,5.616E-006,2.529E-005,6.739E-003,0.000,0.000,0.224,0.000
 ZoneInfiltration Airflow Stats Nominal, BUILDING STORY 8 THERMALZONE LARGEHOTEL CORRIDOR B END_A - STORY MID7 INFILTRATION,ALWAYS ON DISCRETE,BUILDING STORY 8 THERMALZONE,2935.68,79.2,4.983E-002,1.697E-005,1.389E-005,2.037E-002,0.000,0.000,0.224,0.000
 ZoneInfiltration Airflow Stats Nominal, BUILDING STORY 8 THERMALZONE LARGEHOTEL CORRIDOR B END_B - STORY MID7 INFILTRATION,ALWAYS ON DISCRETE,BUILDING STORY 8 THERMALZONE,2935.68,79.2,4.983E-002,1.697E-005,1.389E-005,2.037E-002,0.000,0.000,0.224,0.000
 ZoneInfiltration Airflow Stats Nominal, BUILDING STORY 8 THERMALZONE LARGEHOTEL GUESTROOM A  - STORY MID7 INFILTRATION,ALWAYS ON DISCRETE,BUILDING STORY 8 THERMALZONE,2935.68,79.2,0.790,2.692E-004,2.203E-004,0.323,0.000,0.000,0.224,0.000
 ZoneInfiltration Airflow Stats Nominal, BUILDING STORY 8 THERMALZONE LARGEHOTEL GUESTROOM A END_A - STORY MID7 INFILTRATION,ALWAYS ON DISCRETE,BUILDING STORY 8 THERMALZONE,2935.68,79.2,9.074E-002,3.091E-005,2.529E-005,3.709E-002,0.000,0.000,0.224,0.000
 ZoneInfiltration Airflow Stats Nominal, BUILDING STORY 8 THERMALZONE LARGEHOTEL GUESTROOM A END_B - STORY MID7 INFILTRATION,ALWAYS ON DISCRETE,BUILDING STORY 8 THERMALZONE,2935.68,79.2,9.074E-002,3.091E-005,2.529E-005,3.709E-002,0.000,0.000,0.224,0.000
 ZoneInfiltration Airflow Stats Nominal, BUILDING STORY 8 THERMALZONE LARGEHOTEL GUESTROOM C  - STORY MID7 INFILTRATION,ALWAYS ON DISCRETE,BUILDING STORY 8 THERMALZONE,2935.68,79.2,0.790,2.692E-004,2.203E-004,0.323,0.000,0.000,0.224,0.000
 ZoneInfiltration Airflow Stats Nominal, BUILDING STORY 8 THERMALZONE LARGEHOTEL GUESTROOM C END_A - STORY MID7 INFILTRATION,ALWAYS ON DISCRETE,BUILDING STORY 8 THERMALZONE,2935.68,79.2,9.074E-002,3.091E-005,2.529E-005,3.709E-002,0.000,0.000,0.224,0.000
 ZoneInfiltration Airflow Stats Nominal, BUILDING STORY 8 THERMALZONE LARGEHOTEL GUESTROOM C END_B - STORY MID7 INFILTRATION,ALWAYS ON DISCRETE,BUILDING STORY 8 THERMALZONE,2935.68,79.2,9.074E-002,3.091E-005,2.529E-005,3.709E-002,0.000,0.000,0.224,0.000
 ZoneInfiltration Airflow Stats Nominal, BUILDING STORY 9 THERMALZONE LARGEHOTEL CORRIDOR B END_A - STORY MID8 INFILTRATION,ALWAYS ON DISCRETE,BUILDING STORY 9 THERMALZONE,2935.68,79.2,9.054E-003,3.084E-006,1.389E-005,3.701E-003,0.000,0.000,0.224,0.000
 ZoneInfiltration Airflow Stats Nominal, BUILDING STORY 9 THERMALZONE LARGEHOTEL CORRIDOR B END_B - STORY MID8 INFILTRATION,ALWAYS ON DISCRETE,BUILDING STORY 9 THERMALZONE,2935.68,79.2,9.054E-003,3.084E-006,1.389E-005,3.701E-003,0.000,0.000,0.224,0.000
 ZoneInfiltration Airflow Stats Nominal, BUILDING STORY 9 THERMALZONE LARGEHOTEL GUESTROOM A  - STORY MID8 INFILTRATION,ALWAYS ON DISCRETE,BUILDING STORY 9 THERMALZONE,2935.68,79.2,0.144,4.892E-005,2.203E-004,5.870E-002,0.000,0.000,0.224,0.000
 ZoneInfiltration Airflow Stats Nominal, BUILDING STORY 9 THERMALZONE LARGEHOTEL GUESTROOM A END_A - STORY MID8 INFILTRATION,ALWAYS ON DISCRETE,BUILDING STORY 9 THERMALZONE,2935.68,79.2,1.649E-002,5.616E-006,2.529E-005,6.739E-003,0.000,0.000,0.224,0.000
 ZoneInfiltration Airflow Stats Nominal, BUILDING STORY 9 THERMALZONE LARGEHOTEL GUESTROOM A END_B - STORY MID8 INFILTRATION,ALWAYS ON DISCRETE,BUILDING STORY 9 THERMALZONE,2935.68,79.2,1.649E-002,5.616E-006,2.529E-005,6.739E-003,0.000,0.000,0.224,0.000
 ZoneInfiltration Airflow Stats Nominal, BUILDING STORY 9 THERMALZONE LARGEHOTEL GUESTROOM C  - STORY MID8 INFILTRATION,ALWAYS ON DISCRETE,BUILDING STORY 9 THERMALZONE,2935.68,79.2,0.144,4.892E-005,2.203E-004,5.870E-002,0.000,0.000,0.224,0.000
 ZoneInfiltration Airflow Stats Nominal, BUILDING STORY 9 THERMALZONE LARGEHOTEL GUESTROOM C END_A - STORY MID8 INFILTRATION,ALWAYS ON DISCRETE,BUILDING STORY 9 THERMALZONE,2935.68,79.2,1.649E-002,5.616E-006,2.529E-005,6.739E-003,0.000,0.000,0.224,0.000
 ZoneInfiltration Airflow Stats Nominal, BUILDING STORY 9 THERMALZONE LARGEHOTEL GUESTROOM C END_B - STORY MID8 INFILTRATION,ALWAYS ON DISCRETE,BUILDING STORY 9 THERMALZONE,2935.68,79.2,1.649E-002,5.616E-006,2.529E-005,6.739E-003,0.000,0.000,0.224,0.000
 ZoneInfiltration Airflow Stats Nominal, BUILDING STORY 10 THERMALZONE LARGEHOTEL CORRIDOR B END_A - STORY TOP INFILTRATION,ALWAYS ON DISCRETE,BUILDING STORY 10 THERMALZONE,2935.68,79.2,1.161E-002,3.955E-006,3.237E-006,4.746E-003,0.000,0.000,0.224,0.000
 ZoneInfiltration Airflow Stats Nominal, BUILDING STORY 10 THERMALZONE LARGEHOTEL CORRIDOR B END_B - STORY TOP INFILTRATION,ALWAYS ON DISCRETE,BUILDING STORY 10 THERMALZONE,2935.68,79.2,1.161E-002,3.955E-006,3.237E-006,4.746E-003,0.000,0.000,0.224,0.000
 ZoneInfiltration Airflow Stats Nominal, BUILDING STORY 10 THERMALZONE LARGEHOTEL GUESTROOM A  - STORY TOP INFILTRATION,ALWAYS ON DISCRETE,BUILDING STORY 10 THERMALZONE,2935.68,79.2,0.184,6.274E-005,5.134E-005,7.529E-002,0.000,0.000,0.224,0.000
 ZoneInfiltration Airflow Stats Nominal, BUILDING STORY 10 THERMALZONE LARGEHOTEL GUESTROOM A END_A - STORY TOP INFILTRATION,ALWAYS ON DISCRETE,BUILDING STORY 10 THERMALZONE,2935.68,79.2,2.114E-002,7.202E-006,5.894E-006,8.643E-003,0.000,0.000,0.224,0.000
 ZoneInfiltration Airflow Stats Nominal, BUILDING STORY 10 THERMALZONE LARGEHOTEL GUESTROOM A END_B - STORY TOP INFILTRATION,ALWAYS ON DISCRETE,BUILDING STORY 10 THERMALZONE,2935.68,79.2,2.114E-002,7.202E-006,5.894E-006,8.643E-003,0.000,0.000,0.224,0.000
 ZoneInfiltration Airflow Stats Nominal, BUILDING STORY 10 THERMALZONE LARGEHOTEL GUESTROOM C  - STORY TOP INFILTRATION,ALWAYS ON DISCRETE,BUILDING STORY 10 THERMALZONE,2935.68,79.2,0.184,6.274E-005,5.134E-005,7.529E-002,0.000,0.000,0.224,0.000
 ZoneInfiltration Airflow Stats Nominal, BUILDING STORY 10 THERMALZONE LARGEHOTEL GUESTROOM C END_A - STORY TOP INFILTRATION,ALWAYS ON DISCRETE,BUILDING STORY 10 THERMALZONE,2935.68,79.2,2.114E-002,7.202E-006,5.894E-006,8.643E-003,0.000,0.000,0.224,0.000
 ZoneInfiltration Airflow Stats Nominal, BUILDING STORY 10 THERMALZONE LARGEHOTEL GUESTROOM C END_B - STORY TOP INFILTRATION,ALWAYS ON DISCRETE,BUILDING STORY 10 THERMALZONE,2935.68,79.2,2.114E-002,7.202E-006,5.894E-006,8.643E-003,0.000,0.000,0.224,0.000
! <AirFlow Model>, Simple
 AirFlow Model, Simple
! <RoomAir Model>, Zone Name, Mixing/Mundt/UCSDDV/UCSDCV/UCSDUFI/UCSDUFE/User Defined
RoomAir Model,BUILDING STORY 1 THERMALZONE,Mixing/Well-Stirred
RoomAir Model,BUILDING STORY 10 THERMALZONE,Mixing/Well-Stirred
RoomAir Model,BUILDING STORY 2 THERMALZONE,Mixing/Well-Stirred
RoomAir Model,BUILDING STORY 3 THERMALZONE,Mixing/Well-Stirred
RoomAir Model,BUILDING STORY 4 THERMALZONE,Mixing/Well-Stirred
RoomAir Model,BUILDING STORY 5 THERMALZONE,Mixing/Well-Stirred
RoomAir Model,BUILDING STORY 6 THERMALZONE,Mixing/Well-Stirred
RoomAir Model,BUILDING STORY 7 THERMALZONE,Mixing/Well-Stirred
RoomAir Model,BUILDING STORY 8 THERMALZONE,Mixing/Well-Stirred
RoomAir Model,BUILDING STORY 9 THERMALZONE,Mixing/Well-Stirred
! <AirflowNetwork Model:Control>, No Multizone or Distribution/Multizone with Distribution/Multizone without Distribution/Multizone with Distribution only during Fan Operation
AirflowNetwork Model:Control,NoMultizoneOrDistribution
! <Zone Volume Capacitance Multiplier>, Sensible Heat Capacity Multiplier, Moisture Capacity Multiplier, Carbon Dioxide Capacity Multiplier, Generic Contaminant Capacity Multiplier
Zone Volume Capacitance Multiplier,   1.000 ,   1.000,   1.000,   1.000
! <Load Timesteps in Zone Design Calculation Averaging Window>, Value
 Load Timesteps in Zone Design Calculation Averaging Window,    1
! <Heating Sizing Factor Information>, Sizing Factor ID, Value
 Heating Sizing Factor Information, Global,   1.2500    
 Heating Sizing Factor Information, Zone BUILDING STORY 1 THERMALZONE,   1.2500    
 Heating Sizing Factor Information, Zone BUILDING STORY 10 THERMALZONE,   1.2500    
 Heating Sizing Factor Information, Zone BUILDING STORY 2 THERMALZONE,   1.2500    
 Heating Sizing Factor Information, Zone BUILDING STORY 3 THERMALZONE,   1.2500    
 Heating Sizing Factor Information, Zone BUILDING STORY 4 THERMALZONE,   1.2500    
 Heating Sizing Factor Information, Zone BUILDING STORY 5 THERMALZONE,   1.2500    
 Heating Sizing Factor Information, Zone BUILDING STORY 6 THERMALZONE,   1.2500    
 Heating Sizing Factor Information, Zone BUILDING STORY 7 THERMALZONE,   1.2500    
 Heating Sizing Factor Information, Zone BUILDING STORY 8 THERMALZONE,   1.2500    
 Heating Sizing Factor Information, Zone BUILDING STORY 9 THERMALZONE,   1.2500    
! <Cooling Sizing Factor Information>, Sizing Factor ID, Value
 Cooling Sizing Factor Information, Global,   1.1500    
 Cooling Sizing Factor Information, Zone BUILDING STORY 1 THERMALZONE,   1.1500    
 Cooling Sizing Factor Information, Zone BUILDING STORY 10 THERMALZONE,   1.1500    
 Cooling Sizing Factor Information, Zone BUILDING STORY 2 THERMALZONE,   1.1500    
 Cooling Sizing Factor Information, Zone BUILDING STORY 3 THERMALZONE,   1.1500    
 Cooling Sizing Factor Information, Zone BUILDING STORY 4 THERMALZONE,   1.1500    
 Cooling Sizing Factor Information, Zone BUILDING STORY 5 THERMALZONE,   1.1500    
 Cooling Sizing Factor Information, Zone BUILDING STORY 6 THERMALZONE,   1.1500    
 Cooling Sizing Factor Information, Zone BUILDING STORY 7 THERMALZONE,   1.1500    
 Cooling Sizing Factor Information, Zone BUILDING STORY 8 THERMALZONE,   1.1500    
 Cooling Sizing Factor Information, Zone BUILDING STORY 9 THERMALZONE,   1.1500    
! <Sky Daylight Factors>, MonthAndDay, Zone Name, Window Name, Daylight Fac: Ref Pt #1, Daylight Fac: Ref Pt #2
 Clear Sky Daylight Factors,07/21,BUILDING STORY 1 THERMALZONE,SUB SURFACE 2,0.0000,0.0000
 Clear Turbid Sky Daylight Factors,07/21,BUILDING STORY 1 THERMALZONE,SUB SURFACE 2,0.0000,0.0000
 Intermediate Sky Daylight Factors,07/21,BUILDING STORY 1 THERMALZONE,SUB SURFACE 2,0.0000,0.0000
 Overcast Sky Daylight Factors,07/21,BUILDING STORY 1 THERMALZONE,SUB SURFACE 2,0.0000,0.0000
 Clear Sky Daylight Factors,07/21,BUILDING STORY 1 THERMALZONE,SUB SURFACE 1,3.7051E-004,3.7302E-004
 Clear Turbid Sky Daylight Factors,07/21,BUILDING STORY 1 THERMALZONE,SUB SURFACE 1,3.3299E-004,3.3488E-004
 Intermediate Sky Daylight Factors,07/21,BUILDING STORY 1 THERMALZONE,SUB SURFACE 1,2.8676E-004,2.8748E-004
 Overcast Sky Daylight Factors,07/21,BUILDING STORY 1 THERMALZONE,SUB SURFACE 1,3.4685E-004,3.4789E-004
 Clear Sky Daylight Factors,07/21,BUILDING STORY 1 THERMALZONE,SUB SURFACE 4,2.8039E-004,2.8039E-004
 Clear Turbid Sky Daylight Factors,07/21,BUILDING STORY 1 THERMALZONE,SUB SURFACE 4,2.4156E-004,2.4156E-004
 Intermediate Sky Daylight Factors,07/21,BUILDING STORY 1 THERMALZONE,SUB SURFACE 4,1.9379E-004,1.9379E-004
 Overcast Sky Daylight Factors,07/21,BUILDING STORY 1 THERMALZONE,SUB SURFACE 4,3.0132E-004,3.0132E-004
 Clear Sky Daylight Factors,07/21,BUILDING STORY 1 THERMALZONE,SUB SURFACE 3,4.2080E-004,4.2148E-004
 Clear Turbid Sky Daylight Factors,07/21,BUILDING STORY 1 THERMALZONE,SUB SURFACE 3,3.8700E-004,3.8757E-004
 Intermediate Sky Daylight Factors,07/21,BUILDING STORY 1 THERMALZONE,SUB SURFACE 3,3.3298E-004,3.3335E-004
 Overcast Sky Daylight Factors,07/21,BUILDING STORY 1 THERMALZONE,SUB SURFACE 3,3.5160E-004,3.5187E-004
 Clear Sky Daylight Factors,07/21,BUILDING STORY 10 THERMALZONE,SUB SURFACE 38,3.8190E-002,1.4542E-002
 Clear Turbid Sky Daylight Factors,07/21,BUILDING STORY 10 THERMALZONE,SUB SURFACE 38,3.6048E-002,1.3148E-002
 Intermediate Sky Daylight Factors,07/21,BUILDING STORY 10 THERMALZONE,SUB SURFACE 38,2.8885E-002,9.0814E-003
 Overcast Sky Daylight Factors,07/21,BUILDING STORY 10 THERMALZONE,SUB SURFACE 38,2.3313E-002,6.8716E-003
 Clear Sky Daylight Factors,07/21,BUILDING STORY 10 THERMALZONE,SUB SURFACE 37,4.4862E-004,4.5146E-004
 Clear Turbid Sky Daylight Factors,07/21,BUILDING STORY 10 THERMALZONE,SUB SURFACE 37,3.9487E-004,3.9711E-004
 Intermediate Sky Daylight Factors,07/21,BUILDING STORY 10 THERMALZONE,SUB SURFACE 37,3.2191E-004,3.2310E-004
 Overcast Sky Daylight Factors,07/21,BUILDING STORY 10 THERMALZONE,SUB SURFACE 37,3.9354E-004,3.9473E-004
 Clear Sky Daylight Factors,07/21,BUILDING STORY 10 THERMALZONE,SUB SURFACE 39,3.1106E-004,3.1164E-004
 Clear Turbid Sky Daylight Factors,07/21,BUILDING STORY 10 THERMALZONE,SUB SURFACE 39,2.6438E-004,2.6481E-004
 Intermediate Sky Daylight Factors,07/21,BUILDING STORY 10 THERMALZONE,SUB SURFACE 39,2.0530E-004,2.0545E-004
 Overcast Sky Daylight Factors,07/21,BUILDING STORY 10 THERMALZONE,SUB SURFACE 39,3.2879E-004,3.2902E-004
 Clear Sky Daylight Factors,07/21,BUILDING STORY 10 THERMALZONE,SUB SURFACE 40,4.9363E-004,4.9665E-004
 Clear Turbid Sky Daylight Factors,07/21,BUILDING STORY 10 THERMALZONE,SUB SURFACE 40,4.4740E-004,4.4985E-004
 Intermediate Sky Daylight Factors,07/21,BUILDING STORY 10 THERMALZONE,SUB SURFACE 40,3.7187E-004,3.7331E-004
 Overcast Sky Daylight Factors,07/21,BUILDING STORY 10 THERMALZONE,SUB SURFACE 40,3.9366E-004,3.9486E-004
 Clear Sky Daylight Factors,07/21,BUILDING STORY 2 THERMALZONE,SUB SURFACE 7,3.0086E-004,3.0086E-004
 Clear Turbid Sky Daylight Factors,07/21,BUILDING STORY 2 THERMALZONE,SUB SURFACE 7,2.5676E-004,2.5676E-004
 Intermediate Sky Daylight Factors,07/21,BUILDING STORY 2 THERMALZONE,SUB SURFACE 7,2.0250E-004,2.0250E-004
 Overcast Sky Daylight Factors,07/21,BUILDING STORY 2 THERMALZONE,SUB SURFACE 7,3.2463E-004,3.2463E-004
 Clear Sky Daylight Factors,07/21,BUILDING STORY 2 THERMALZONE,SUB SURFACE 8,4.5487E-004,4.5555E-004
 Clear Turbid Sky Daylight Factors,07/21,BUILDING STORY 2 THERMALZONE,SUB SURFACE 8,4.1697E-004,4.1754E-004
 Intermediate Sky Daylight Factors,07/21,BUILDING STORY 2 THERMALZONE,SUB SURFACE 8,3.5647E-004,3.5684E-004
 Overcast Sky Daylight Factors,07/21,BUILDING STORY 2 THERMALZONE,SUB SURFACE 8,3.7755E-004,3.7781E-004
 Clear Sky Daylight Factors,07/21,BUILDING STORY 2 THERMALZONE,SUB SURFACE 5,0.0000,0.0000
 Clear Turbid Sky Daylight Factors,07/21,BUILDING STORY 2 THERMALZONE,SUB SURFACE 5,0.0000,0.0000
 Intermediate Sky Daylight Factors,07/21,BUILDING STORY 2 THERMALZONE,SUB SURFACE 5,0.0000,0.0000
 Overcast Sky Daylight Factors,07/21,BUILDING STORY 2 THERMALZONE,SUB SURFACE 5,0.0000,0.0000
 Clear Sky Daylight Factors,07/21,BUILDING STORY 2 THERMALZONE,SUB SURFACE 6,3.9946E-004,4.0197E-004
 Clear Turbid Sky Daylight Factors,07/21,BUILDING STORY 2 THERMALZONE,SUB SURFACE 6,3.5705E-004,3.5894E-004
 Intermediate Sky Daylight Factors,07/21,BUILDING STORY 2 THERMALZONE,SUB SURFACE 6,3.0483E-004,3.0556E-004
 Overcast Sky Daylight Factors,07/21,BUILDING STORY 2 THERMALZONE,SUB SURFACE 6,3.7280E-004,3.7383E-004
 Clear Sky Daylight Factors,07/21,BUILDING STORY 3 THERMALZONE,SUB SURFACE 10,0.0000,0.0000
 Clear Turbid Sky Daylight Factors,07/21,BUILDING STORY 3 THERMALZONE,SUB SURFACE 10,0.0000,0.0000
 Intermediate Sky Daylight Factors,07/21,BUILDING STORY 3 THERMALZONE,SUB SURFACE 10,0.0000,0.0000
 Overcast Sky Daylight Factors,07/21,BUILDING STORY 3 THERMALZONE,SUB SURFACE 10,0.0000,0.0000
 Clear Sky Daylight Factors,07/21,BUILDING STORY 3 THERMALZONE,SUB SURFACE 9,3.9946E-004,4.0197E-004
 Clear Turbid Sky Daylight Factors,07/21,BUILDING STORY 3 THERMALZONE,SUB SURFACE 9,3.5705E-004,3.5894E-004
 Intermediate Sky Daylight Factors,07/21,BUILDING STORY 3 THERMALZONE,SUB SURFACE 9,3.0483E-004,3.0556E-004
 Overcast Sky Daylight Factors,07/21,BUILDING STORY 3 THERMALZONE,SUB SURFACE 9,3.7280E-004,3.7383E-004
 Clear Sky Daylight Factors,07/21,BUILDING STORY 3 THERMALZONE,SUB SURFACE 12,3.0086E-004,3.0086E-004
 Clear Turbid Sky Daylight Factors,07/21,BUILDING STORY 3 THERMALZONE,SUB SURFACE 12,2.5676E-004,2.5676E-004
 Intermediate Sky Daylight Factors,07/21,BUILDING STORY 3 THERMALZONE,SUB SURFACE 12,2.0250E-004,2.0250E-004
 Overcast Sky Daylight Factors,07/21,BUILDING STORY 3 THERMALZONE,SUB SURFACE 12,3.2463E-004,3.2463E-004
 Clear Sky Daylight Factors,07/21,BUILDING STORY 3 THERMALZONE,SUB SURFACE 11,4.5487E-004,4.5555E-004
 Clear Turbid Sky Daylight Factors,07/21,BUILDING STORY 3 THERMALZONE,SUB SURFACE 11,4.1697E-004,4.1754E-004
 Intermediate Sky Daylight Factors,07/21,BUILDING STORY 3 THERMALZONE,SUB SURFACE 11,3.5647E-004,3.5684E-004
 Overcast Sky Daylight Factors,07/21,BUILDING STORY 3 THERMALZONE,SUB SURFACE 11,3.7755E-004,3.7781E-004
 Clear Sky Daylight Factors,07/21,BUILDING STORY 4 THERMALZONE,SUB SURFACE 15,0.0000,0.0000
 Clear Turbid Sky Daylight Factors,07/21,BUILDING STORY 4 THERMALZONE,SUB SURFACE 15,0.0000,0.0000
 Intermediate Sky Daylight Factors,07/21,BUILDING STORY 4 THERMALZONE,SUB SURFACE 15,0.0000,0.0000
 Overcast Sky Daylight Factors,07/21,BUILDING STORY 4 THERMALZONE,SUB SURFACE 15,0.0000,0.0000
 Clear Sky Daylight Factors,07/21,BUILDING STORY 4 THERMALZONE,SUB SURFACE 14,4.0163E-004,4.0197E-004
 Clear Turbid Sky Daylight Factors,07/21,BUILDING STORY 4 THERMALZONE,SUB SURFACE 14,3.5868E-004,3.5894E-004
 Intermediate Sky Daylight Factors,07/21,BUILDING STORY 4 THERMALZONE,SUB SURFACE 14,3.0546E-004,3.0556E-004
 Overcast Sky Daylight Factors,07/21,BUILDING STORY 4 THERMALZONE,SUB SURFACE 14,3.7369E-004,3.7383E-004
 Clear Sky Daylight Factors,07/21,BUILDING STORY 4 THERMALZONE,SUB SURFACE 13,3.0086E-004,3.0086E-004
 Clear Turbid Sky Daylight Factors,07/21,BUILDING STORY 4 THERMALZONE,SUB SURFACE 13,2.5676E-004,2.5676E-004
 Intermediate Sky Daylight Factors,07/21,BUILDING STORY 4 THERMALZONE,SUB SURFACE 13,2.0250E-004,2.0250E-004
 Overcast Sky Daylight Factors,07/21,BUILDING STORY 4 THERMALZONE,SUB SURFACE 13,3.2463E-004,3.2463E-004
 Clear Sky Daylight Factors,07/21,BUILDING STORY 4 THERMALZONE,SUB SURFACE 16,4.5487E-004,4.5555E-004
 Clear Turbid Sky Daylight Factors,07/21,BUILDING STORY 4 THERMALZONE,SUB SURFACE 16,4.1697E-004,4.1754E-004
 Intermediate Sky Daylight Factors,07/21,BUILDING STORY 4 THERMALZONE,SUB SURFACE 16,3.5647E-004,3.5684E-004
 Overcast Sky Daylight Factors,07/21,BUILDING STORY 4 THERMALZONE,SUB SURFACE 16,3.7755E-004,3.7781E-004
 Clear Sky Daylight Factors,07/21,BUILDING STORY 5 THERMALZONE,SUB SURFACE 17,0.0000,0.0000
 Clear Turbid Sky Daylight Factors,07/21,BUILDING STORY 5 THERMALZONE,SUB SURFACE 17,0.0000,0.0000
 Intermediate Sky Daylight Factors,07/21,BUILDING STORY 5 THERMALZONE,SUB SURFACE 17,0.0000,0.0000
 Overcast Sky Daylight Factors,07/21,BUILDING STORY 5 THERMALZONE,SUB SURFACE 17,0.0000,0.0000
 Clear Sky Daylight Factors,07/21,BUILDING STORY 5 THERMALZONE,SUB SURFACE 18,4.0163E-004,4.0197E-004
 Clear Turbid Sky Daylight Factors,07/21,BUILDING STORY 5 THERMALZONE,SUB SURFACE 18,3.5868E-004,3.5894E-004
 Intermediate Sky Daylight Factors,07/21,BUILDING STORY 5 THERMALZONE,SUB SURFACE 18,3.0546E-004,3.0556E-004
 Overcast Sky Daylight Factors,07/21,BUILDING STORY 5 THERMALZONE,SUB SURFACE 18,3.7369E-004,3.7383E-004
 Clear Sky Daylight Factors,07/21,BUILDING STORY 5 THERMALZONE,SUB SURFACE 19,3.0086E-004,3.0086E-004
 Clear Turbid Sky Daylight Factors,07/21,BUILDING STORY 5 THERMALZONE,SUB SURFACE 19,2.5676E-004,2.5676E-004
 Intermediate Sky Daylight Factors,07/21,BUILDING STORY 5 THERMALZONE,SUB SURFACE 19,2.0250E-004,2.0250E-004
 Overcast Sky Daylight Factors,07/21,BUILDING STORY 5 THERMALZONE,SUB SURFACE 19,3.2463E-004,3.2463E-004
 Clear Sky Daylight Factors,07/21,BUILDING STORY 5 THERMALZONE,SUB SURFACE 20,4.5487E-004,4.5555E-004
 Clear Turbid Sky Daylight Factors,07/21,BUILDING STORY 5 THERMALZONE,SUB SURFACE 20,4.1697E-004,4.1754E-004
 Intermediate Sky Daylight Factors,07/21,BUILDING STORY 5 THERMALZONE,SUB SURFACE 20,3.5647E-004,3.5684E-004
 Overcast Sky Daylight Factors,07/21,BUILDING STORY 5 THERMALZONE,SUB SURFACE 20,3.7755E-004,3.7781E-004
 Clear Sky Daylight Factors,07/21,BUILDING STORY 6 THERMALZONE,SUB SURFACE 21,4.7110E-009,0.0000
 Clear Turbid Sky Daylight Factors,07/21,BUILDING STORY 6 THERMALZONE,SUB SURFACE 21,3.7246E-009,0.0000
 Intermediate Sky Daylight Factors,07/21,BUILDING STORY 6 THERMALZONE,SUB SURFACE 21,1.9420E-009,0.0000
 Overcast Sky Daylight Factors,07/21,BUILDING STORY 6 THERMALZONE,SUB SURFACE 21,2.0311E-009,0.0000
 Clear Sky Daylight Factors,07/21,BUILDING STORY 6 THERMALZONE,SUB SURFACE 22,3.9811E-004,4.0197E-004
 Clear Turbid Sky Daylight Factors,07/21,BUILDING STORY 6 THERMALZONE,SUB SURFACE 22,3.5604E-004,3.5894E-004
 Intermediate Sky Daylight Factors,07/21,BUILDING STORY 6 THERMALZONE,SUB SURFACE 22,3.0446E-004,3.0556E-004
 Overcast Sky Daylight Factors,07/21,BUILDING STORY 6 THERMALZONE,SUB SURFACE 22,3.7225E-004,3.7383E-004
 Clear Sky Daylight Factors,07/21,BUILDING STORY 6 THERMALZONE,SUB SURFACE 24,3.0086E-004,3.0086E-004
 Clear Turbid Sky Daylight Factors,07/21,BUILDING STORY 6 THERMALZONE,SUB SURFACE 24,2.5676E-004,2.5676E-004
 Intermediate Sky Daylight Factors,07/21,BUILDING STORY 6 THERMALZONE,SUB SURFACE 24,2.0250E-004,2.0250E-004
 Overcast Sky Daylight Factors,07/21,BUILDING STORY 6 THERMALZONE,SUB SURFACE 24,3.2463E-004,3.2463E-004
 Clear Sky Daylight Factors,07/21,BUILDING STORY 6 THERMALZONE,SUB SURFACE 23,4.5487E-004,4.5555E-004
 Clear Turbid Sky Daylight Factors,07/21,BUILDING STORY 6 THERMALZONE,SUB SURFACE 23,4.1697E-004,4.1754E-004
 Intermediate Sky Daylight Factors,07/21,BUILDING STORY 6 THERMALZONE,SUB SURFACE 23,3.5647E-004,3.5684E-004
 Overcast Sky Daylight Factors,07/21,BUILDING STORY 6 THERMALZONE,SUB SURFACE 23,3.7755E-004,3.7781E-004
 Clear Sky Daylight Factors,07/21,BUILDING STORY 7 THERMALZONE,SUB SURFACE 25,4.7110E-009,0.0000
 Clear Turbid Sky Daylight Factors,07/21,BUILDING STORY 7 THERMALZONE,SUB SURFACE 25,3.7246E-009,0.0000
 Intermediate Sky Daylight Factors,07/21,BUILDING STORY 7 THERMALZONE,SUB SURFACE 25,1.9420E-009,0.0000
 Overcast Sky Daylight Factors,07/21,BUILDING STORY 7 THERMALZONE,SUB SURFACE 25,2.0311E-009,0.0000
 Clear Sky Daylight Factors,07/21,BUILDING STORY 7 THERMALZONE,SUB SURFACE 26,3.9811E-004,4.0197E-004
 Clear Turbid Sky Daylight Factors,07/21,BUILDING STORY 7 THERMALZONE,SUB SURFACE 26,3.5604E-004,3.5894E-004
 Intermediate Sky Daylight Factors,07/21,BUILDING STORY 7 THERMALZONE,SUB SURFACE 26,3.0446E-004,3.0556E-004
 Overcast Sky Daylight Factors,07/21,BUILDING STORY 7 THERMALZONE,SUB SURFACE 26,3.7225E-004,3.7383E-004
 Clear Sky Daylight Factors,07/21,BUILDING STORY 7 THERMALZONE,SUB SURFACE 28,3.0086E-004,3.0086E-004
 Clear Turbid Sky Daylight Factors,07/21,BUILDING STORY 7 THERMALZONE,SUB SURFACE 28,2.5676E-004,2.5676E-004
 Intermediate Sky Daylight Factors,07/21,BUILDING STORY 7 THERMALZONE,SUB SURFACE 28,2.0250E-004,2.0250E-004
 Overcast Sky Daylight Factors,07/21,BUILDING STORY 7 THERMALZONE,SUB SURFACE 28,3.2463E-004,3.2463E-004
 Clear Sky Daylight Factors,07/21,BUILDING STORY 7 THERMALZONE,SUB SURFACE 27,4.5487E-004,4.5555E-004
 Clear Turbid Sky Daylight Factors,07/21,BUILDING STORY 7 THERMALZONE,SUB SURFACE 27,4.1697E-004,4.1754E-004
 Intermediate Sky Daylight Factors,07/21,BUILDING STORY 7 THERMALZONE,SUB SURFACE 27,3.5647E-004,3.5684E-004
 Overcast Sky Daylight Factors,07/21,BUILDING STORY 7 THERMALZONE,SUB SURFACE 27,3.7755E-004,3.7781E-004
 Clear Sky Daylight Factors,07/21,BUILDING STORY 8 THERMALZONE,SUB SURFACE 32,4.7110E-009,0.0000
 Clear Turbid Sky Daylight Factors,07/21,BUILDING STORY 8 THERMALZONE,SUB SURFACE 32,3.7246E-009,0.0000
 Intermediate Sky Daylight Factors,07/21,BUILDING STORY 8 THERMALZONE,SUB SURFACE 32,1.9420E-009,0.0000
 Overcast Sky Daylight Factors,07/21,BUILDING STORY 8 THERMALZONE,SUB SURFACE 32,2.0311E-009,0.0000
 Clear Sky Daylight Factors,07/21,BUILDING STORY 8 THERMALZONE,SUB SURFACE 31,3.9811E-004,4.0197E-004
 Clear Turbid Sky Daylight Factors,07/21,BUILDING STORY 8 THERMALZONE,SUB SURFACE 31,3.5604E-004,3.5894E-004
 Intermediate Sky Daylight Factors,07/21,BUILDING STORY 8 THERMALZONE,SUB SURFACE 31,3.0446E-004,3.0556E-004
 Overcast Sky Daylight Factors,07/21,BUILDING STORY 8 THERMALZONE,SUB SURFACE 31,3.7225E-004,3.7383E-004
 Clear Sky Daylight Factors,07/21,BUILDING STORY 8 THERMALZONE,SUB SURFACE 30,3.0086E-004,3.0086E-004
 Clear Turbid Sky Daylight Factors,07/21,BUILDING STORY 8 THERMALZONE,SUB SURFACE 30,2.5676E-004,2.5676E-004
 Intermediate Sky Daylight Factors,07/21,BUILDING STORY 8 THERMALZONE,SUB SURFACE 30,2.0250E-004,2.0250E-004
 Overcast Sky Daylight Factors,07/21,BUILDING STORY 8 THERMALZONE,SUB SURFACE 30,3.2463E-004,3.2463E-004
 Clear Sky Daylight Factors,07/21,BUILDING STORY 8 THERMALZONE,SUB SURFACE 29,4.5487E-004,4.5555E-004
 Clear Turbid Sky Daylight Factors,07/21,BUILDING STORY 8 THERMALZONE,SUB SURFACE 29,4.1697E-004,4.1754E-004
 Intermediate Sky Daylight Factors,07/21,BUILDING STORY 8 THERMALZONE,SUB SURFACE 29,3.5647E-004,3.5684E-004
 Overcast Sky Daylight Factors,07/21,BUILDING STORY 8 THERMALZONE,SUB SURFACE 29,3.7755E-004,3.7781E-004
 Clear Sky Daylight Factors,07/21,BUILDING STORY 9 THERMALZONE,SUB SURFACE 36,3.8190E-002,1.4542E-002
 Clear Turbid Sky Daylight Factors,07/21,BUILDING STORY 9 THERMALZONE,SUB SURFACE 36,3.6048E-002,1.3148E-002
 Intermediate Sky Daylight Factors,07/21,BUILDING STORY 9 THERMALZONE,SUB SURFACE 36,2.8885E-002,9.0814E-003
 Overcast Sky Daylight Factors,07/21,BUILDING STORY 9 THERMALZONE,SUB SURFACE 36,2.3313E-002,6.8716E-003
 Clear Sky Daylight Factors,07/21,BUILDING STORY 9 THERMALZONE,SUB SURFACE 34,4.4862E-004,4.5146E-004
 Clear Turbid Sky Daylight Factors,07/21,BUILDING STORY 9 THERMALZONE,SUB SURFACE 34,3.9487E-004,3.9711E-004
 Intermediate Sky Daylight Factors,07/21,BUILDING STORY 9 THERMALZONE,SUB SURFACE 34,3.2191E-004,3.2310E-004
 Overcast Sky Daylight Factors,07/21,BUILDING STORY 9 THERMALZONE,SUB SURFACE 34,3.9354E-004,3.9473E-004
 Clear Sky Daylight Factors,07/21,BUILDING STORY 9 THERMALZONE,SUB SURFACE 33,3.1106E-004,3.1164E-004
 Clear Turbid Sky Daylight Factors,07/21,BUILDING STORY 9 THERMALZONE,SUB SURFACE 33,2.6438E-004,2.6481E-004
 Intermediate Sky Daylight Factors,07/21,BUILDING STORY 9 THERMALZONE,SUB SURFACE 33,2.0530E-004,2.0545E-004
 Overcast Sky Daylight Factors,07/21,BUILDING STORY 9 THERMALZONE,SUB SURFACE 33,3.2879E-004,3.2902E-004
 Clear Sky Daylight Factors,07/21,BUILDING STORY 9 THERMALZONE,SUB SURFACE 35,4.9363E-004,4.9665E-004
 Clear Turbid Sky Daylight Factors,07/21,BUILDING STORY 9 THERMALZONE,SUB SURFACE 35,4.4740E-004,4.4985E-004
 Intermediate Sky Daylight Factors,07/21,BUILDING STORY 9 THERMALZONE,SUB SURFACE 35,3.7187E-004,3.7331E-004
 Overcast Sky Daylight Factors,07/21,BUILDING STORY 9 THERMALZONE,SUB SURFACE 35,3.9366E-004,3.9486E-004
! <Zone Sizing Information>, Zone Name, Load Type, Calc Des Load {W}, User Des Load {W}, Calc Des Air Flow Rate {m3/s}, User Des Air Flow Rate {m3/s}, Design Day Name, Date/Time of Peak, Temperature at Peak {C}, Humidity Ratio at Peak {kgWater/kgDryAir}, Floor Area {m2}, # Occupants, Calc Outdoor Air Flow Rate {m3/s}, Calc DOAS Heat Addition Rate {W}
 Zone Sizing Information, BUILDING STORY 1 THERMALZONE, Cooling, 314658.30909, 361857.05545, 23.43744, 26.95306, BUFFALO NIAGARA INTL AP ANN CLG .4% CONDNS DB=>MWB 1, 7/21 09:00:00, 25.18500, 1.33455E-002, 2935.68221, 996.36157, 4.91475, 0.00000
 Zone Sizing Information, BUILDING STORY 1 THERMALZONE, Heating, 28921.53989, 36151.92487, 0.83307, 4.91475, BUFFALO NIAGARA INTL AP ANN HTG 99.6% CONDNS DB 1, 1/21 24:00:00, -16.30000, 9.24091E-004, 2935.68221, 996.36157, 4.91475, 0.00000
 Zone Sizing Information, BUILDING STORY 10 THERMALZONE, Cooling, 74739.47729, 85950.39888, 8.64787, 9.94505, BUFFALO NIAGARA INTL AP ANN CLG .4% CONDNS DB=>MWB 1, 7/21 16:00:00, 29.74200, 1.33455E-002, 2935.68221, 79.24728, 1.08180, 0.00000
 Zone Sizing Information, BUILDING STORY 10 THERMALZONE, Heating, 63435.13934, 79293.92418, 1.83399, 2.29248, BUFFALO NIAGARA INTL AP ANN HTG 99.6% CONDNS DB 1, 1/21 24:00:00, -16.30000, 9.24091E-004, 2935.68221, 79.24728, 1.08180, 0.00000
 Zone Sizing Information, BUILDING STORY 2 THERMALZONE, Cooling, 162538.89351, 186919.72754, 11.48499, 13.20774, BUFFALO NIAGARA INTL AP ANN CLG .4% CONDNS DB=>MWB 1, 7/21 07:00:00, 21.83700, 1.33455E-002, 2935.68221, 889.26721, 4.03613, 0.00000
 Zone Sizing Information, BUILDING STORY 2 THERMALZONE, Heating, 31982.97762, 39978.72203, 0.92123, 4.03613, BUFFALO NIAGARA INTL AP ANN HTG 99.6% CONDNS DB 1, 1/21 24:00:00, -16.30000, 9.24091E-004, 2935.68221, 889.26721, 4.03613, 0.00000
 Zone Sizing Information, BUILDING STORY 3 THERMALZONE, Cooling, 71352.92582, 82055.86470, 8.25554, 9.49388, BUFFALO NIAGARA INTL AP ANN CLG .4% CONDNS DB=>MWB 1, 7/21 17:00:00, 28.99800, 1.33455E-002, 2935.68221, 79.24728, 1.08180, 0.00000
[...]
 Component Sizing Information, Coil:Heating:Water, HOT WATER LOOP WATER HTG COIL 6, Design Size Maximum Water Flow Rate [m3/s], 7.52712E-003
 Component Sizing Information, Coil:Heating:Water, HOT WATER LOOP WATER HTG COIL 6, Design Size U-Factor Times Area Value [W/K], 8410.96696
Water Heating Coil Capacity Information,Coil:Heating:Water,HOT WATER LOOP WATER HTG COIL 6,343412.11
 Component Sizing Information, Coil:Cooling:DX:SingleSpeed, BUILDING STORY 9 THERMALZONE PTAC 1SPD DX AC CLG COIL 482KBTU/HR 9.5EER, Design Size Rated Air Flow Rate [m3/s], 8.54898
 Component Sizing Information, Coil:Cooling:DX:SingleSpeed, BUILDING STORY 9 THERMALZONE PTAC 1SPD DX AC CLG COIL 482KBTU/HR 9.5EER, Design Size Gross Rated Total Cooling Capacity [W], 141516.00635
 Component Sizing Information, Coil:Cooling:DX:SingleSpeed, BUILDING STORY 9 THERMALZONE PTAC 1SPD DX AC CLG COIL 482KBTU/HR 9.5EER, Design Size Gross Rated Sensible Heat Ratio, 0.80066
 DX Cooling Coil Standard Rating Information, Coil:Cooling:DX:SingleSpeed, BUILDING STORY 9 THERMALZONE PTAC 1SPD DX AC CLG COIL 482KBTU/HR 9.5EER, 134882.3, 2.72, 9.30, 9.86, 9.26
 Component Sizing Information, Fan:ConstantVolume, BUILDING STORY 9 THERMALZONE PTAC FAN, Design Size Maximum Flow Rate [m3/s], 8.54898
 Component Sizing Information, AirLoopHVAC, 1 ZONE PVAV, Sum of Air Terminal Maximum Heating Flow Rates [m3/s], 18.86714
 Component Sizing Information, AirLoopHVAC, 1 ZONE PVAV, Sum of Air Terminal Minimum Heating Flow Rates [m3/s], 18.86714
 Component Sizing Information, AirLoopHVAC, 1 ZONE PVAV, Sum of Air Terminal Maximum Flow Rates [m3/s], 26.95306
 Component Sizing Information, AirLoopHVAC, 1 ZONE PVAV, Adjusted Heating Design Air Flow Rate [m3/s], 18.86714
 Component Sizing Information, AirLoopHVAC, 1 ZONE PVAV, Adjusted Cooling Design Air Flow Rate [m3/s], 26.95306
 Component Sizing Information, AirLoopHVAC, 1 ZONE PVAV, Adjusted Main Design Air Flow Rate [m3/s], 26.95306
 Component Sizing Information, AirLoopHVAC, 1 ZONE PVAV, User Heating Air Flow Ratio [], 0.30000
 Component Sizing Information, AirLoopHVAC, 1 ZONE PVAV, Calculated Heating Air Flow Ratio [], 0.70000
 Component Sizing Information, AirLoopHVAC, 1 ZONE PVAV 1, Sum of Air Terminal Maximum Heating Flow Rates [m3/s], 9.24542
 Component Sizing Information, AirLoopHVAC, 1 ZONE PVAV 1, Sum of Air Terminal Minimum Heating Flow Rates [m3/s], 9.24542
 Component Sizing Information, AirLoopHVAC, 1 ZONE PVAV 1, Sum of Air Terminal Maximum Flow Rates [m3/s], 13.20774
 Component Sizing Information, AirLoopHVAC, 1 ZONE PVAV 1, Adjusted Heating Design Air Flow Rate [m3/s], 9.24542
 Component Sizing Information, AirLoopHVAC, 1 ZONE PVAV 1, Adjusted Cooling Design Air Flow Rate [m3/s], 13.20774
 Component Sizing Information, AirLoopHVAC, 1 ZONE PVAV 1, Adjusted Main Design Air Flow Rate [m3/s], 13.20774
 Component Sizing Information, AirLoopHVAC, 1 ZONE PVAV 1, User Heating Air Flow Ratio [], 0.30000
 Component Sizing Information, AirLoopHVAC, 1 ZONE PVAV 1, Calculated Heating Air Flow Ratio [], 0.70000
 Component Sizing Information, AirLoopHVAC, 1 ZONE PVAV 2, Sum of Air Terminal Maximum Heating Flow Rates [m3/s], 13.27773
 Component Sizing Information, AirLoopHVAC, 1 ZONE PVAV 2, Sum of Air Terminal Minimum Heating Flow Rates [m3/s], 13.27773
 Component Sizing Information, AirLoopHVAC, 1 ZONE PVAV 2, Sum of Air Terminal Maximum Flow Rates [m3/s], 18.96818
 Component Sizing Information, AirLoopHVAC, 1 ZONE PVAV 2, Adjusted Heating Design Air Flow Rate [m3/s], 13.27773
 Component Sizing Information, AirLoopHVAC, 1 ZONE PVAV 2, Adjusted Cooling Design Air Flow Rate [m3/s], 18.96818
 Component Sizing Information, AirLoopHVAC, 1 ZONE PVAV 2, Adjusted Main Design Air Flow Rate [m3/s], 18.96818
 Component Sizing Information, AirLoopHVAC, 1 ZONE PVAV 2, User Heating Air Flow Ratio [], 0.30000
 Component Sizing Information, AirLoopHVAC, 1 ZONE PVAV 2, Calculated Heating Air Flow Ratio [], 0.70000
 Component Sizing Information, AirLoopHVAC, 1 ZONE PVAV, Design Supply Air Flow Rate [m3/s], 26.95306
 Component Sizing Information, AirLoopHVAC, 1 ZONE PVAV 1, Design Supply Air Flow Rate [m3/s], 13.20774
 Component Sizing Information, AirLoopHVAC, 1 ZONE PVAV 2, Design Supply Air Flow Rate [m3/s], 18.96818
!<Controller:MechanicalVentilation>,Name,Availability Schedule Name,Demand Controlled Ventilation {Yes/No},System Outdoor Air Method,Zone Maximum Outdoor Air Fraction,Number of Zones,Zone Name,DSOA Name,DSZAD Name
 Controller:MechanicalVentilation,1 ZONE PVAV VENTILATION CONTROLLER,1 ZONE PVAV OCC SCH,Yes,ZoneSum,1.00,1,BUILDING STORY 1 THERMALZONE,BLENDED OA,BUILDING STORY 1 THERMALZONE DESIGN SPEC ZONE AIR DIST
 Controller:MechanicalVentilation,1 ZONE PVAV 1 VENTILATION CONTROLLER,1 ZONE PVAV 1 OCC SCH,Yes,ZoneSum,1.00,1,BUILDING STORY 2 THERMALZONE,BLENDED OA 2,BUILDING STORY 2 THERMALZONE DESIGN SPEC ZONE AIR DIST
 Controller:MechanicalVentilation,1 ZONE PVAV 2 VENTILATION CONTROLLER,1 ZONE PVAV 2 OCC SCH,Yes,ZoneSum,1.00,1,BUILDING STORY 4 THERMALZONE,BLENDED OA 1,BUILDING STORY 4 THERMALZONE DESIGN SPEC ZONE AIR DIST
 Component Sizing Information, Controller:OutdoorAir, CONTROLLER OUTDOOR AIR 1, Maximum Outdoor Air Flow Rate [m3/s], 26.95306
 Component Sizing Information, Coil:Cooling:DX:TwoSpeed, 1 ZONE PVAV 2SPD DX CLG COIL 1871KBTU/HR 9.5EER, Design Size High Speed Rated Air Flow Rate [m3/s], 26.95306
 Component Sizing Information, Coil:Cooling:DX:TwoSpeed, 1 ZONE PVAV 2SPD DX CLG COIL 1871KBTU/HR 9.5EER, Design Size High Speed Gross Rated Total Cooling Capacity [W], 592310.74021
 Component Sizing Information, Coil:Cooling:DX:TwoSpeed, 1 ZONE PVAV 2SPD DX CLG COIL 1871KBTU/HR 9.5EER, Design Size High Speed Rated Sensible Heat Ratio, 0.73794
 Component Sizing Information, Coil:Cooling:DX:TwoSpeed, 1 ZONE PVAV 2SPD DX CLG COIL 1871KBTU/HR 9.5EER, Design Size Low Speed Rated Air Flow Rate [m3/s], 8.98345
 Component Sizing Information, Coil:Cooling:DX:TwoSpeed, 1 ZONE PVAV 2SPD DX CLG COIL 1871KBTU/HR 9.5EER, Design Size Low Speed Gross Rated Total Cooling Capacity [W], 197417.16971
 Component Sizing Information, Coil:Cooling:DX:TwoSpeed, 1 ZONE PVAV 2SPD DX CLG COIL 1871KBTU/HR 9.5EER, User-Specified Low Speed Gross Rated Sensible Heat Ratio, 0.69000
! <VAV DX Cooling Coil Standard Rating Information>, DX Coil Type, DX Coil Name, Fan Type, Fan Name, Standard Net Cooling Capacity {W}, Standard Net Cooling Capacity {Btu/h}, IEER {Btu/W-h}, COP 100% Capacity {W/W}, COP 75% Capacity {W/W}, COP 50% Capacity {W/W}, COP 25% Capacity {W/W}, EER 100% Capacity {Btu/W-h}, EER 75% Capacity {Btu/W-h}, EER 50% Capacity {Btu/W-h}, EER 25% Capacity {Btu/W-h}, Supply Air Flow 100% {kg/s}, Supply Air Flow 75% {kg/s},Supply Air Flow 50% {kg/s},Supply Air Flow 25% {kg/s}
 VAV DX Cooling Coil Standard Rating Information, Coil:Cooling:DX:TwoSpeed,1 ZONE PVAV 2SPD DX CLG COIL 1871KBTU/HR 9.5EER,N/A,N/A,570499.03,1946623.48,10.64,2.85,3.07,3.19,3.26,9.71,10.47,10.89,11.13,30.3882,23.4079,15.8902,7.1366,
 Component Sizing Information, Coil:Heating:Water, 1 ZONE PVAV MAIN HTG COIL, Design Size Rated Capacity [W], 137829.35033
 Component Sizing Information, Coil:Heating:Water, 1 ZONE PVAV MAIN HTG COIL, Design Size Maximum Water Flow Rate [m3/s], 3.01472E-003
 Component Sizing Information, Coil:Heating:Water, 1 ZONE PVAV MAIN HTG COIL, Design Size U-Factor Times Area Value [W/K], 2015.33791
Water Heating Coil Capacity Information,Coil:Heating:Water,1 ZONE PVAV MAIN HTG COIL,107991.88
 Component Sizing Information, Fan:VariableVolume, 1 ZONE PVAV FAN, Design Size Maximum Flow Rate [m3/s], 26.95306
 Component Sizing Information, Controller:WaterCoil, 1 ZONE PVAV MAIN HTG COIL CONTROLLER, Maximum Actuated Flow [m3/s], 3.01472E-003
 Component Sizing Information, Controller:OutdoorAir, CONTROLLER OUTDOOR AIR 2, Maximum Outdoor Air Flow Rate [m3/s], 13.20774
 Component Sizing Information, Coil:Cooling:DX:TwoSpeed, 1 ZONE PVAV 1 2SPD DX CLG COIL 989KBTU/HR 9.5EER, Design Size High Speed Rated Air Flow Rate [m3/s], 13.20774
 Component Sizing Information, Coil:Cooling:DX:TwoSpeed, 1 ZONE PVAV 1 2SPD DX CLG COIL 989KBTU/HR 9.5EER, Design Size High Speed Gross Rated Total Cooling Capacity [W], 325750.06358
 Component Sizing Information, Coil:Cooling:DX:TwoSpeed, 1 ZONE PVAV 1 2SPD DX CLG COIL 989KBTU/HR 9.5EER, Design Size High Speed Rated Sensible Heat Ratio, 0.70076
 Component Sizing Information, Coil:Cooling:DX:TwoSpeed, 1 ZONE PVAV 1 2SPD DX CLG COIL 989KBTU/HR 9.5EER, Design Size Low Speed Rated Air Flow Rate [m3/s], 4.40214
 Component Sizing Information, Coil:Cooling:DX:TwoSpeed, 1 ZONE PVAV 1 2SPD DX CLG COIL 989KBTU/HR 9.5EER, Design Size Low Speed Gross Rated Total Cooling Capacity [W], 108572.49619
 Component Sizing Information, Coil:Cooling:DX:TwoSpeed, 1 ZONE PVAV 1 2SPD DX CLG COIL 989KBTU/HR 9.5EER, User-Specified Low Speed Gross Rated Sensible Heat Ratio, 0.69000
 VAV DX Cooling Coil Standard Rating Information, Coil:Cooling:DX:TwoSpeed,1 ZONE PVAV 1 2SPD DX CLG COIL 989KBTU/HR 9.5EER,N/A,N/A,315003.65,1074837.07,10.81,2.89,3.12,3.24,3.30,9.87,10.66,11.05,11.25,14.8910,11.7960,8.2017,3.6741,
 Component Sizing Information, Coil:Heating:Water, 1 ZONE PVAV 1 MAIN HTG COIL, Design Size Rated Capacity [W], 135911.56316
 Component Sizing Information, Coil:Heating:Water, 1 ZONE PVAV 1 MAIN HTG COIL, Design Size Maximum Water Flow Rate [m3/s], 2.97277E-003
 Component Sizing Information, Coil:Heating:Water, 1 ZONE PVAV 1 MAIN HTG COIL, Design Size U-Factor Times Area Value [W/K], 1785.66069
Water Heating Coil Capacity Information,Coil:Heating:Water,1 ZONE PVAV 1 MAIN HTG COIL,90736.72
 Component Sizing Information, Fan:VariableVolume, 1 ZONE PVAV 1 FAN, Design Size Maximum Flow Rate [m3/s], 13.20774
 Component Sizing Information, Controller:WaterCoil, 1 ZONE PVAV 1 MAIN HTG COIL CONTROLLER, Maximum Actuated Flow [m3/s], 2.97277E-003
 Component Sizing Information, Controller:OutdoorAir, CONTROLLER OUTDOOR AIR 3, Maximum Outdoor Air Flow Rate [m3/s], 18.96818
 Component Sizing Information, Coil:Cooling:DX:TwoSpeed, 1 ZONE PVAV 2 2SPD DX CLG COIL 1469KBTU/HR 9.5EER, Design Size High Speed Rated Air Flow Rate [m3/s], 18.96818
 Component Sizing Information, Coil:Cooling:DX:TwoSpeed, 1 ZONE PVAV 2 2SPD DX CLG COIL 1469KBTU/HR 9.5EER, Design Size High Speed Gross Rated Total Cooling Capacity [W], 466017.11116
 Component Sizing Information, Coil:Cooling:DX:TwoSpeed, 1 ZONE PVAV 2 2SPD DX CLG COIL 1469KBTU/HR 9.5EER, Design Size High Speed Rated Sensible Heat Ratio, 0.70172
 Component Sizing Information, Coil:Cooling:DX:TwoSpeed, 1 ZONE PVAV 2 2SPD DX CLG COIL 1469KBTU/HR 9.5EER, Design Size Low Speed Rated Air Flow Rate [m3/s], 6.32210
 Component Sizing Information, Coil:Cooling:DX:TwoSpeed, 1 ZONE PVAV 2 2SPD DX CLG COIL 1469KBTU/HR 9.5EER, Design Size Low Speed Gross Rated Total Cooling Capacity [W], 155323.50315
 Component Sizing Information, Coil:Cooling:DX:TwoSpeed, 1 ZONE PVAV 2 2SPD DX CLG COIL 1469KBTU/HR 9.5EER, User-Specified Low Speed Gross Rated Sensible Heat Ratio, 0.69000
 VAV DX Cooling Coil Standard Rating Information, Coil:Cooling:DX:TwoSpeed,1 ZONE PVAV 2 2SPD DX CLG COIL 1469KBTU/HR 9.5EER,N/A,N/A,450586.69,1537465.62,10.80,2.89,3.12,3.24,3.30,9.86,10.65,11.04,11.25,21.3856,16.9247,11.7577,5.2693,
 Component Sizing Information, Coil:Heating:Water, 1 ZONE PVAV 2 MAIN HTG COIL, Design Size Rated Capacity [W], 175774.26244
 Component Sizing Information, Coil:Heating:Water, 1 ZONE PVAV 2 MAIN HTG COIL, Design Size Maximum Water Flow Rate [m3/s], 3.84468E-003
 Component Sizing Information, Coil:Heating:Water, 1 ZONE PVAV 2 MAIN HTG COIL, Design Size U-Factor Times Area Value [W/K], 2353.58573
Water Heating Coil Capacity Information,Coil:Heating:Water,1 ZONE PVAV 2 MAIN HTG COIL,120874.13
 Component Sizing Information, Fan:VariableVolume, 1 ZONE PVAV 2 FAN, Design Size Maximum Flow Rate [m3/s], 18.96818
 Component Sizing Information, Controller:WaterCoil, 1 ZONE PVAV 2 MAIN HTG COIL CONTROLLER, Maximum Actuated Flow [m3/s], 3.84468E-003
Water Heater Information,WaterHeater:Mixed,6.0GAL ELECTRICITY BOOSTER WATER HEATER - 50KBTU/HR 1.0 THERM EFF,2.2712E-002,14775.4,33.444,0.9151
Water Heater Information,WaterHeater:Mixed,263GAL NATURALGAS WATER HEATER - 263KBTU/HR 0.804 THERM EFF,0.9939,76955.3,0.690,0.4642
Water Heater Information,WaterHeater:Mixed,517GAL ELECTRICITY WATER HEATER - 517KBTU/HR 1.0 THERM EFF,1.9579,151586.6,0.442,0.8894
Water Heater Information,WaterHeater:Mixed,392GAL ELECTRICITY WATER HEATER - 392KBTU/HR 1.0 THERM EFF,1.4854,115008.0,0.581,0.8755
 Component Sizing Information, PlantLoop, LARGEHOTEL KITCHEN - 90.1-2013 SERVICE WATER BOOSTER LOOP, Maximum Loop Flow Rate [m3/s], 2.62959E-004
 Component Sizing Information, PlantLoop, LARGEHOTEL KITCHEN - 90.1-2013 SERVICE WATER BOOSTER LOOP, Plant Loop Volume [m3], 3.15550E-002
 Component Sizing Information, Pump:VariableSpeed, BOOSTER WATER LOOP PUMP, Design Flow Rate [m3/s], 2.62959E-004
 Component Sizing Information, HeatExchanger:FluidToFluid, HX FOR BOOSTER WATER HEATING, Loop Supply Side Design Fluid Flow Rate [m3/s], 2.62959E-004
 Component Sizing Information, HeatExchanger:FluidToFluid, HX FOR BOOSTER WATER HEATING, Loop Demand Side Design Fluid Flow Rate [m3/s], 2.62959E-004
 Component Sizing Information, HeatExchanger:FluidToFluid, HX FOR BOOSTER WATER HEATING, Heat Exchanger U-Factor Times Area Value [W/C], 320.44911
 Component Sizing Information, HeatExchanger:FluidToFluid, HX FOR BOOSTER WATER HEATING, Loop-to-loop Temperature Difference Used to Size Heat Exchanger U-Factor Times Area Value [C], 17.22222
 Component Sizing Information, WaterHeater:Mixed, 6.0GAL ELECTRICITY BOOSTER WATER HEATER - 50KBTU/HR 1.0 THERM EFF, Use Side Design Flow Rate [m3/s], 2.62959E-004
 Component Sizing Information, PlantComponent:TemperatureSource, MAINS WATER MAKEUP FOR SWH BOOSTER, Design Size Design Fluid Flow Rate [m3/s], 1.49010E-003
 Component Sizing Information, PlantLoop, HOT WATER LOOP, Maximum Loop Flow Rate [m3/s], 8.09625E-002
 Component Sizing Information, PlantLoop, HOT WATER LOOP, Plant Loop Volume [m3], 9.71549
 Component Sizing Information, Pump:VariableSpeed, HOT WATER LOOP PUMP, Design Flow Rate [m3/s], 8.09625E-002
 Component Sizing Information, Pump:VariableSpeed, HOT WATER LOOP PUMP, Design Power Consumption [W], 19888.41068
 Component Sizing Information, Boiler:HotWater, BOILER 12502KBTU/HR 0.8 THERMAL EFF, Design Size Nominal Capacity [W], 3701506.06001
 Component Sizing Information, Boiler:HotWater, BOILER 12502KBTU/HR 0.8 THERMAL EFF, Design Size Design Water Flow Rate [m3/s], 8.09625E-002
 Component Sizing Information, PlantLoop, LARGEHOTEL KITCHEN - 90.1-2013 SERVICE WATER LOOP, Maximum Loop Flow Rate [m3/s], 1.92836E-003
 Component Sizing Information, PlantLoop, LARGEHOTEL KITCHEN - 90.1-2013 SERVICE WATER LOOP, Plant Loop Volume [m3], 0.23140
 Component Sizing Information, Pump:VariableSpeed, LARGEHOTEL KITCHEN - 90.1-2013 SERVICE WATER LOOP WATER MAINS PRESSURE DRIVEN, Design Flow Rate [m3/s], 1.92836E-003
 Component Sizing Information, Pump:VariableSpeed, LARGEHOTEL KITCHEN - 90.1-2013 SERVICE WATER LOOP WATER MAINS PRESSURE DRIVEN, Design Power Consumption [W], 3.53180E-006
 Component Sizing Information, WaterHeater:Mixed, 263GAL NATURALGAS WATER HEATER - 263KBTU/HR 0.804 THERM EFF, Use Side Design Flow Rate [m3/s], 1.92836E-003
 Component Sizing Information, PlantLoop, LARGEHOTEL LAUNDRY - 90.1-2013 SERVICE WATER LOOP, Maximum Loop Flow Rate [m3/s], 5.17976E-004
 Component Sizing Information, PlantLoop, LARGEHOTEL LAUNDRY - 90.1-2013 SERVICE WATER LOOP, Plant Loop Volume [m3], 6.21571E-002
 Component Sizing Information, Pump:VariableSpeed, LARGEHOTEL LAUNDRY - 90.1-2013 SERVICE WATER LOOP WATER MAINS PRESSURE DRIVEN, Design Flow Rate [m3/s], 5.17976E-004
 Component Sizing Information, Pump:VariableSpeed, LARGEHOTEL LAUNDRY - 90.1-2013 SERVICE WATER LOOP WATER MAINS PRESSURE DRIVEN, Design Power Consumption [W], 9.48674E-007
 Component Sizing Information, WaterHeater:Mixed, 517GAL ELECTRICITY WATER HEATER - 517KBTU/HR 1.0 THERM EFF, Use Side Design Flow Rate [m3/s], 5.17976E-004
 Component Sizing Information, PlantLoop, LARGEHOTEL SHARED SERVICE WATER LOOP, Maximum Loop Flow Rate [m3/s], 4.91232E-004
 Component Sizing Information, PlantLoop, LARGEHOTEL SHARED SERVICE WATER LOOP, Plant Loop Volume [m3], 5.89478E-002
 Component Sizing Information, Pump:ConstantSpeed, LARGEHOTEL SHARED SERVICE WATER LOOP CIRCULATOR PUMP, Design Flow Rate [m3/s], 4.91232E-004
 Component Sizing Information, Pump:ConstantSpeed, LARGEHOTEL SHARED SERVICE WATER LOOP CIRCULATOR PUMP, Design Power Consumption [W], 26.89240
 Component Sizing Information, WaterHeater:Mixed, 392GAL ELECTRICITY WATER HEATER - 392KBTU/HR 1.0 THERM EFF, Use Side Design Flow Rate [m3/s], 4.91232E-004
! <Environment>,Environment Name,Environment Type, Start Date, End Date, Start DayOfWeek, Duration {#days}, Source:Start DayOfWeek,  Use Daylight Saving, Use Holidays, Apply Weekend Holiday Rule,  Use Rain Values, Use Snow Values
! <Environment:Special Days>, Special Day Name, Special Day Type, Source, Start Date, Duration {#days}
! <Environment:Daylight Saving>, Daylight Saving Indicator, Source, Start Date, End Date
! <Environment:WarmupDays>, NumberofWarmupDays
Environment,RUN PERIOD 1,WeatherFileRunPeriod,01/01/2019,12/31/2019,Tuesday,365,Use RunPeriod Specified Day,No,No,No,Yes,Yes
Environment:Daylight Saving,Yes,InputFile,03/10,11/03
Environment:WarmupDays,  6
! <Tabular Report>,Style,Unit Conversion
Tabular Report,HTML,None
! <Warmup Convergence Information>,Zone Name,Environment Type/Name,Average Warmup Temperature Difference {deltaC},Std Dev Warmup Temperature Difference {deltaC},Max Temperature Pass/Fail Convergence,Min Temperature Pass/Fail Convergence,Average Warmup Load Difference {W},Std Dev Warmup Load Difference {W},Heating Load Pass/Fail Convergence,Cooling Load Pass/Fail Convergence
 Warmup Convergence Information,BUILDING STORY 1 THERMALZONE,RunPeriod: RUN PERIOD 1,9.2654942403E-002,0.1812997362,Pass,Pass,7.2144979639E-002,6.4932717768E-002,Pass,Pass
 Warmup Convergence Information,BUILDING STORY 10 THERMALZONE,RunPeriod: RUN PERIOD 1,0.1851103892,0.4836456812,Pass,Pass,0.2167861395,0.1940474180,Pass,Pass
 Warmup Convergence Information,BUILDING STORY 2 THERMALZONE,RunPeriod: RUN PERIOD 1,2.8432584800E-003,1.7068163317E-003,Pass,Pass,0.1052712313,0.1084748898,Pass,Pass
 Warmup Convergence Information,BUILDING STORY 3 THERMALZONE,RunPeriod: RUN PERIOD 1,0.1534155892,0.3921697707,Pass,Pass,1.1385706572,3.2276628674,Pass,Pass
 Warmup Convergence Information,BUILDING STORY 4 THERMALZONE,RunPeriod: RUN PERIOD 1,3.2777262717E-002,6.2270851927E-002,Pass,Pass,6.8131137365E-002,8.7289210010E-002,Pass,Pass
 Warmup Convergence Information,BUILDING STORY 5 THERMALZONE,RunPeriod: RUN PERIOD 1,0.1576162474,0.4024920427,Pass,Pass,0.5735408175,0.7595104434,Pass,Pass
 Warmup Convergence Information,BUILDING STORY 6 THERMALZONE,RunPeriod: RUN PERIOD 1,0.1586301030,0.4052782216,Pass,Pass,0.5266783959,0.6128942129,Pass,Pass
 Warmup Convergence Information,BUILDING STORY 7 THERMALZONE,RunPeriod: RUN PERIOD 1,0.1600628095,0.4075368115,Pass,Pass,0.4827012654,0.5239319279,Pass,Pass
 Warmup Convergence Information,BUILDING STORY 8 THERMALZONE,RunPeriod: RUN PERIOD 1,0.1851688780,0.4932543895,Pass,Pass,0.6707905680,0.8669704585,Pass,Pass
 Warmup Convergence Information,BUILDING STORY 9 THERMALZONE,RunPeriod: RUN PERIOD 1,0.1704324734,0.4380609114,Pass,Pass,0.4262410042,0.4097999493,Pass,Pass
! <Program Control Information:Threads/Parallel Sims>, Threading Supported,Maximum Number of Threads, Env Set Threads (OMP_NUM_THREADS), EP Env Set Threads (EP_OMP_NUM_THREADS), IDF Set Threads, Number of Threads Used (Interior Radiant Exchange), Number Nominal Surfaces, Number Parallel Sims
Program Control:Threads/Parallel Sims, No,1, N/A, N/A, N/A, N/A, N/A, N/A
End of Data
