Program Version,EnergyPlus, Version 9.1.0-fafb9d5652, YMD=2020.03.26 13:25,
   ** Warning ** Timestep: Requested number (1) is less than the suggested minimum of 4.
   **   ~~~   ** Please see entry for Timestep in Input/Output Reference for discussion of considerations.
   ************* Beginning Zone Sizing Calculations
   ** Warning ** ProcessScheduleInput: Schedule:Day:Interval="39 SPACE(S) OCC SCH DEFAULT", Blank Schedule Type Limits Name input -- will not be validated.
   ** Warning ** ProcessScheduleInput: Schedule:Day:Interval="39 SPACE(S) OCC SCH SATURDAY", Blank Schedule Type Limits Name input -- will not be validated.
   ** Warning ** ProcessScheduleInput: Schedule:Day:Interval="39 SPACE(S) OCC SCH SUMMER DESIGN DAY", Blank Schedule Type Limits Name input -- will not be validated.
   ** Warning ** ProcessScheduleInput: Schedule:Day:Interval="39 SPACE(S) OCC SCH SUNDAY", Blank Schedule Type Limits Name input -- will not be validated.
   ** Warning ** ProcessScheduleInput: Schedule:Day:Interval="39 SPACE(S) OCC SCH WINTER DESIGN DAY", Blank Schedule Type Limits Name input -- will not be validated.
   ** Warning ** ProcessScheduleInput: Schedule:Day:Interval="ECONOMIZER MAX OA FRACTION 70 PCT DEFAULT", Blank Schedule Type Limits Name input -- will not be validated.
   ** Warning ** ProcessScheduleInput: Schedule:Day:Interval="SCHEDULE DAY 1", Blank Schedule Type Limits Name input -- will not be validated.
   ** Warning ** ProcessScheduleInput: Schedule:Day:Interval="SCHEDULE DAY 10", Blank Schedule Type Limits Name input -- will not be validated.
   ** Warning ** ProcessScheduleInput: Schedule:Day:Interval="SCHEDULE DAY 2", Blank Schedule Type Limits Name input -- will not be validated.
   ** Warning ** ProcessScheduleInput: Schedule:Day:Interval="SCHEDULE DAY 3", Blank Schedule Type Limits Name input -- will not be validated.
   ** Warning ** ProcessScheduleInput: Schedule:Day:Interval="SCHEDULE DAY 4", Blank Schedule Type Limits Name input -- will not be validated.
   ** Warning ** ProcessScheduleInput: Schedule:Day:Interval="SCHEDULE DAY 6", Blank Schedule Type Limits Name input -- will not be validated.
   ** Warning ** ProcessScheduleInput: Schedule:Day:Interval="SCHEDULE DAY 7", Blank Schedule Type Limits Name input -- will not be validated.
   ** Warning ** ProcessScheduleInput: Schedule:Day:Interval="SCHEDULE DAY 9", Blank Schedule Type Limits Name input -- will not be validated.
   ** Warning ** ProcessScheduleInput: Schedule:Year="ECONOMIZER MAX OA FRACTION 70 PCT", Blank Schedule Type Limits Name input -- will not be validated.
   ** Warning ** ProcessScheduleInput: Schedule:Year="ELEVATOR SCHEDULE", Blank Schedule Type Limits Name input -- will not be validated.
   ** Warning ** ProcessScheduleInput: Schedule:Constant="ALWAYS OFF DISCRETE", Blank Schedule Type Limits Name input -- will not be validated.
   ** Warning ** ProcessScheduleInput: Schedule:Constant="ALWAYS ON CONTINUOUS", Blank Schedule Type Limits Name input -- will not be validated.
   ** Warning ** CheckUsedConstructions: There are 12 nominally unused constructions in input.
   **   ~~~   ** For explicit details on each unused construction, use Output:Diagnostics,DisplayExtraWarnings;
   ** Warning ** DetermineShadowingCombinations: There are 10 surfaces which are receiving surfaces and are non-convex.
   **   ~~~   ** ...Shadowing values may be inaccurate. Check .shd report file for more surface shading details
   **   ~~~   ** ...Add Output:Diagnostics,DisplayExtraWarnings; to see individual warnings for each surface.
   ** Warning ** DeterminePolygonOverlap: Too many figures [>15000]  detected in an overlap calculation. Use Output:Diagnostics,DisplayExtraWarnings; for more details.
   ** Warning ** GetDaylightingControls: Fraction of Zone controlled by the Daylighting reference points is < 1.0.
   **   ~~~   ** ..discovered in "Daylighting:Controls" for Zone="BUILDING STORY 1 THERMALZONE", only 0.40 of the zone is controlled.
   ** Warning ** GetDaylightingControls: Fraction of Zone controlled by the Daylighting reference points is < 1.0.
   **   ~~~   ** ..discovered in "Daylighting:Controls" for Zone="BUILDING STORY 2 THERMALZONE", only 0.20 of the zone is controlled.
   ** Warning ** GetDaylightingControls: Fraction of Zone controlled by the Daylighting reference points is < 1.0.
   **   ~~~   ** ..discovered in "Daylighting:Controls" for Zone="BUILDING STORY 3 THERMALZONE", only 0.20 of the zone is controlled.
   ** Warning ** GetDaylightingControls: Fraction of Zone controlled by the Daylighting reference points is < 1.0.
   **   ~~~   ** ..discovered in "Daylighting:Controls" for Zone="BUILDING STORY 4 THERMALZONE", only 8.40E-002 of the zone is controlled.
   ************* Beginning System Sizing Calculations
   ** Warning ** Since Zone Minimum Air Flow Input Method = CONSTANT, input for Fixed Minimum Air Flow Rate will be ignored.
   **   ~~~   ** Occurs in AirTerminal:SingleDuct:VAV:Reheat = BUILDING STORY 1 THERMALZONE VAV TERMINAL
   ** Warning ** Since Zone Minimum Air Flow Input Method = CONSTANT, input for Fixed Minimum Air Flow Rate will be ignored.
   **   ~~~   ** Occurs in AirTerminal:SingleDuct:VAV:Reheat = BUILDING STORY 2 THERMALZONE VAV TERMINAL
   ** Warning ** Since Zone Minimum Air Flow Input Method = CONSTANT, input for Fixed Minimum Air Flow Rate will be ignored.
   **   ~~~   ** Occurs in AirTerminal:SingleDuct:VAV:Reheat = BUILDING STORY 3 THERMALZONE VAV TERMINAL
   ** Warning ** Since Zone Minimum Air Flow Input Method = CONSTANT, input for Fixed Minimum Air Flow Rate will be ignored.
   **   ~~~   ** Occurs in AirTerminal:SingleDuct:VAV:Reheat = BUILDING STORY 4 THERMALZONE VAV TERMINAL
   ************* Beginning Plant Sizing Calculations
   ** Warning ** Controller:MechanicalVentilation="1 ZONE VAV 1 VENT CONTROLLER", Zone OA/person rate
   **   ~~~   ** For Zone="BUILDING STORY 2 THERMALZONE".
   **   ~~~   ** Zone outside air per person rate not set in Design Specification Outdoor Air Object="BLENDED OA 2".
   ** Warning ** Controller:MechanicalVentilation="1 ZONE VAV 2 VENT CONTROLLER", Zone OA/person rate
   **   ~~~   ** For Zone="BUILDING STORY 3 THERMALZONE".
   **   ~~~   ** Zone outside air per person rate not set in Design Specification Outdoor Air Object="BLENDED OA 3".
   ** Warning ** In calculating the design coil UA for Coil:Cooling:Water 1 ZONE VAV CLG COIL
   **   ~~~   ** the coil bypass factor is unrealistically large;
   **   ~~~   ** The initial design conditions are: Tair,in = 25.3776
   **   ~~~   **                                    Wair,in = 1.032332E-002
   **   ~~~   **                                    Twater,in = 6.6667
   **   ~~~   **                                    Tair,out = 10.9132
   **   ~~~   **                                    Wair,out = 8.500000E-003
   ** Warning ** In calculating the design coil UA for Coil:Cooling:Water 1 ZONE VAV 1 CLG COIL
   **   ~~~   ** the coil bypass factor is unrealistically large;
   **   ~~~   ** The initial design conditions are: Tair,in = 27.2405
   **   ~~~   **                                    Wair,in = 1.172897E-002
   **   ~~~   **                                    Twater,in = 6.6667
   **   ~~~   **                                    Tair,out = 10.9180
   **   ~~~   **                                    Wair,out = 8.500000E-003
   ** Warning ** In calculating the design coil UA for Coil:Cooling:Water 1 ZONE VAV 2 CLG COIL
   **   ~~~   ** the coil bypass factor is unrealistically large;
   **   ~~~   ** The initial design conditions are: Tair,in = 26.9331
   **   ~~~   **                                    Wair,in = 1.190185E-002
   **   ~~~   **                                    Twater,in = 6.6667
   **   ~~~   **                                    Tair,out = 10.9186
   **   ~~~   **                                    Wair,out = 8.500000E-003
   ** Warning ** In calculating the design coil UA for Coil:Cooling:Water 1 ZONE VAV 3 CLG COIL
   **   ~~~   ** the coil bypass factor is unrealistically large;
   **   ~~~   ** The initial design conditions are: Tair,in = 24.2831
   **   ~~~   **                                    Wair,in = 1.052679E-002
   **   ~~~   **                                    Twater,in = 6.6667
   **   ~~~   **                                    Tair,out = 10.9139
   **   ~~~   **                                    Wair,out = 8.500000E-003
   ** Warning ** GetElectricEIRChillerInput: Chiller:Electric:EIR="90.1-2013 WATERCOOLED  ROTARY SCREW CHILLER 0 2814TONS 0.6KW/TON"
   **   ~~~   ** Energy input ratio as a function of temperature curve output is not equal to 1.0 (+ or - 10%) at reference conditions.
   **   ~~~   ** Curve output at reference conditions = 1.205
   ** Warning ** Check input. Pump nominal power or motor efficiency is set to 0, for pump=BOOSTER WATER LOOP PUMP
   ** Warning ** Missing temperature setpoint for LeavingSetpointModulated mode Boiler named BOILER 26468KBTU/HR 0.8 THERMAL EFF
   **   ~~~   **   A temperature setpoint is needed at the outlet node of a boiler in variable flow mode
   **   ~~~   **   use a Setpoint Manager to establish a setpoint at the boiler outlet node 
   **   ~~~   **   or use an EMS actuator to establish a setpoint at the boiler outlet node 
   **   ~~~   **   The overall loop setpoint will be assumed for Boiler. The simulation continues ... 
   ** Warning ** Output:Meter: invalid Key Name="HEATING:ADDITIONALFUEL" - not found.
   ** Warning ** Output:Meter: invalid Key Name="HEATING:DISTRICTCOOLING" - not found.
   ** Warning ** Output:Meter: invalid Key Name="HEATING:DISTRICTHEATING" - not found.
   ** Warning ** Output:Meter: invalid Key Name="HEATING:WATER" - not found.
   ** Warning ** Output:Meter: invalid Key Name="COOLING:GAS" - not found.
   ** Warning ** Output:Meter: invalid Key Name="COOLING:ADDITIONALFUEL" - not found.
   ** Warning ** Output:Meter: invalid Key Name="COOLING:DISTRICTCOOLING" - not found.
   ** Warning ** Output:Meter: invalid Key Name="COOLING:DISTRICTHEATING" - not found.
   ** Warning ** Output:Meter: invalid Key Name="COOLING:WATER" - not found.
   ** Warning ** Output:Meter: invalid Key Name="INTERIORLIGHTS:GAS" - not found.
   ** Warning ** Output:Meter: invalid Key Name="INTERIORLIGHTS:ADDITIONALFUEL" - not found.
   ** Warning ** Output:Meter: invalid Key Name="INTERIORLIGHTS:DISTRICTCOOLING" - not found.
   ** Warning ** Output:Meter: invalid Key Name="INTERIORLIGHTS:DISTRICTHEATING" - not found.
   ** Warning ** Output:Meter: invalid Key Name="INTERIORLIGHTS:WATER" - not found.
   ** Warning ** Output:Meter: invalid Key Name="EXTERIORLIGHTS:GAS" - not found.
   ** Warning ** Output:Meter: invalid Key Name="EXTERIORLIGHTS:ADDITIONALFUEL" - not found.
   ** Warning ** Output:Meter: invalid Key Name="EXTERIORLIGHTS:DISTRICTCOOLING" - not found.
   ** Warning ** Output:Meter: invalid Key Name="EXTERIORLIGHTS:DISTRICTHEATING" - not found.
   ** Warning ** Output:Meter: invalid Key Name="EXTERIORLIGHTS:WATER" - not found.
   ** Warning ** Output:Meter: invalid Key Name="INTERIOREQUIPMENT:ADDITIONALFUEL" - not found.
   ** Warning ** Output:Meter: invalid Key Name="INTERIOREQUIPMENT:DISTRICTCOOLING" - not found.
   ** Warning ** Output:Meter: invalid Key Name="INTERIOREQUIPMENT:DISTRICTHEATING" - not found.
   ** Warning ** Output:Meter: invalid Key Name="INTERIOREQUIPMENT:WATER" - not found.
   ** Warning ** Output:Meter: invalid Key Name="EXTERIOREQUIPMENT:ELECTRICITY" - not found.
   ** Warning ** Output:Meter: invalid Key Name="EXTERIOREQUIPMENT:GAS" - not found.
   ** Warning ** Output:Meter: invalid Key Name="EXTERIOREQUIPMENT:ADDITIONALFUEL" - not found.
   ** Warning ** Output:Meter: invalid Key Name="EXTERIOREQUIPMENT:DISTRICTCOOLING" - not found.
   ** Warning ** Output:Meter: invalid Key Name="EXTERIOREQUIPMENT:DISTRICTHEATING" - not found.
   ** Warning ** Output:Meter: invalid Key Name="EXTERIOREQUIPMENT:WATER" - not found.
   ** Warning ** Output:Meter: invalid Key Name="FANS:GAS" - not found.
   ** Warning ** Output:Meter: invalid Key Name="FANS:ADDITIONALFUEL" - not found.
   ** Warning ** Output:Meter: invalid Key Name="FANS:DISTRICTCOOLING" - not found.
   ** Warning ** Output:Meter: invalid Key Name="FANS:DISTRICTHEATING" - not found.
   ** Warning ** Output:Meter: invalid Key Name="FANS:WATER" - not found.
   ** Warning ** Output:Meter: invalid Key Name="PUMPS:GAS" - not found.
   ** Warning ** Output:Meter: invalid Key Name="PUMPS:ADDITIONALFUEL" - not found.
   ** Warning ** Output:Meter: invalid Key Name="PUMPS:DISTRICTCOOLING" - not found.
   ** Warning ** Output:Meter: invalid Key Name="PUMPS:DISTRICTHEATING" - not found.
   ** Warning ** Output:Meter: invalid Key Name="PUMPS:WATER" - not found.
   ** Warning ** Output:Meter: invalid Key Name="HEATREJECTION:GAS" - not found.
   ** Warning ** Output:Meter: invalid Key Name="HEATREJECTION:ADDITIONALFUEL" - not found.
   ** Warning ** Output:Meter: invalid Key Name="HEATREJECTION:DISTRICTCOOLING" - not found.
   ** Warning ** Output:Meter: invalid Key Name="HEATREJECTION:DISTRICTHEATING" - not found.
   ** Warning ** Output:Meter: invalid Key Name="HUMIDIFIER:ELECTRICITY" - not found.
   ** Warning ** Output:Meter: invalid Key Name="HUMIDIFIER:GAS" - not found.
   ** Warning ** Output:Meter: invalid Key Name="HUMIDIFIER:ADDITIONALFUEL" - not found.
   ** Warning ** Output:Meter: invalid Key Name="HUMIDIFIER:DISTRICTCOOLING" - not found.
   ** Warning ** Output:Meter: invalid Key Name="HUMIDIFIER:DISTRICTHEATING" - not found.
   ** Warning ** Output:Meter: invalid Key Name="HUMIDIFIER:WATER" - not found.
   ** Warning ** Output:Meter: invalid Key Name="HEATRECOVERY:ELECTRICITY" - not found.
   ** Warning ** Output:Meter: invalid Key Name="HEATRECOVERY:GAS" - not found.
   ** Warning ** Output:Meter: invalid Key Name="HEATRECOVERY:ADDITIONALFUEL" - not found.
   ** Warning ** Output:Meter: invalid Key Name="HEATRECOVERY:DISTRICTCOOLING" - not found.
   ** Warning ** Output:Meter: invalid Key Name="HEATRECOVERY:DISTRICTHEATING" - not found.
   ** Warning ** Output:Meter: invalid Key Name="HEATRECOVERY:WATER" - not found.
   ** Warning ** Output:Meter: invalid Key Name="WATERSYSTEMS:ADDITIONALFUEL" - not found.
   ** Warning ** Output:Meter: invalid Key Name="WATERSYSTEMS:DISTRICTCOOLING" - not found.
   ** Warning ** Output:Meter: invalid Key Name="WATERSYSTEMS:DISTRICTHEATING" - not found.
   ** Warning ** Output:Meter: invalid Key Name="REFRIGERATION:ELECTRICITY" - not found.
   ** Warning ** Output:Meter: invalid Key Name="REFRIGERATION:GAS" - not found.
   ** Warning ** Output:Meter: invalid Key Name="REFRIGERATION:ADDITIONALFUEL" - not found.
   ** Warning ** Output:Meter: invalid Key Name="REFRIGERATION:DISTRICTCOOLING" - not found.
   ** Warning ** Output:Meter: invalid Key Name="REFRIGERATION:DISTRICTHEATING" - not found.
   ** Warning ** Output:Meter: invalid Key Name="REFRIGERATION:WATER" - not found.
   ** Warning ** Output:Meter: invalid Key Name="GENERATORS:ELECTRICITY" - not found.
   ** Warning ** Output:Meter: invalid Key Name="GENERATORS:GAS" - not found.
   ** Warning ** Output:Meter: invalid Key Name="GENERATORS:ADDITIONALFUEL" - not found.
   ** Warning ** Output:Meter: invalid Key Name="GENERATORS:DISTRICTCOOLING" - not found.
   ** Warning ** Output:Meter: invalid Key Name="GENERATORS:DISTRICTHEATING" - not found.
   ** Warning ** Output:Meter: invalid Key Name="GENERATORS:WATER" - not found.
   ** Warning ** Output:Meter: invalid Key Name="ADDITIONALFUEL:FACILITY" - not found.
   ** Warning ** Output:Meter: invalid Key Name="DISTRICTCOOLING:FACILITY" - not found.
   ** Warning ** Output:Meter: invalid Key Name="DISTRICTHEATING:FACILITY" - not found.
   ** Warning ** Output:Meter:MeterFileOnly requested for "Electricity:Facility" (TimeStep), already on "Output:Meter". Will report to both eplusout.eso and eplusout.mtr
   ** Warning ** Output:Meter:MeterFileOnly: invalid Key Name="ELECTRICITYPRODUCED:FACILITY" - not found.
   ** Warning ** Output:Meter:MeterFileOnly requested for "Gas:Facility" (TimeStep), already on "Output:Meter". Will report to both eplusout.eso and eplusout.mtr
   ** Warning ** Output:Meter:MeterFileOnly: invalid Key Name="DISTRICTCOOLING:FACILITY" - not found.
   ** Warning ** Output:Meter:MeterFileOnly: invalid Key Name="DISTRICTHEATING:FACILITY" - not found.
   ************* Testing Individual Branch Integrity
   ************* All Branches passed integrity testing
   ************* Testing Individual Supply Air Path Integrity
   ************* All Supply Air Paths passed integrity testing
   ************* Testing Individual Return Air Path Integrity
   ************* All Return Air Paths passed integrity testing
   ************* No node connection errors were found.
   ************* Beginning Simulation
   ** Severe  ** CheckWarmupConvergence: Loads Initialization, Zone="BUILDING STORY 1 THERMALZONE" did not converge after 25 warmup days.
   **   ~~~   ** See Warmup Convergence Information in .eio file for details.
   **   ~~~   ** ...Environment(RunPeriod)="RUN PERIOD 1"
   **   ~~~   ** ..Max Temp Comparison = 1.68E-004 vs Temperature Convergence Tolerance=0.40 - Pass Convergence
   **   ~~~   ** ..Min Temp Comparison = 2.72E-004 vs Temperature Convergence Tolerance=0.40 - Pass Convergence
   **   ~~~   ** ..Max Heat Load Comparison = 4.0481E-002 vs Loads Convergence Tolerance=4.00E-002 - Fail Convergence
   **   ~~~   ** ..Max Cool Load Comparison = 2.3685E-005 vs Loads Convergence Tolerance=4.00E-002 - Pass Convergence
   ** Warning ** Processing Monthly Tabular Reports: Variable names not valid for this simulation
   **   ~~~   ** ...use Output:Diagnostics,DisplayExtraWarnings; to show more details on individual variables.
   ** Warning ** CoolingTower:VariableSpeed "PROPELLER OR AXIAL VARIABLE SPEED FAN OPEN COOLING TOWER 40.2 GPM/HP" - Inlet air wet-bulb temperature is outside model boundaries at -1.39.
   **   ~~~   **  ...Valid range = -1.00 to 26.67. Occurrence info = RUN PERIOD 1, 01/01 05:36 - 05:48
   **   ~~~   **  ...Inlet air wet-bulb temperature passed to the model = -1.000000
   **   ~~~   **  ...Wet-bulb temperatures outside model boundaries may not adversely affect tower performance.
   ** Warning ** CoolingTower:VariableSpeed "PROPELLER OR AXIAL VARIABLE SPEED FAN OPEN COOLING TOWER 40.2 GPM/HP" - Tower approach temperature is outside model boundaries at 22.51.
   **   ~~~   **  ...Valid range = 1.11 to 11.11. Occurrence info = RUN PERIOD 1, 01/01 05:36 - 05:48
   **   ~~~   **  ...Tower approach temperature passed to the model = 22.50559
   **   ~~~   **  ...Approach temperatures outside model boundaries may not adversely affect tower performance.
   **   ~~~   **  ...This is not an unexpected occurrence when simulating actual conditions.
   ** Warning ** CoolingTower:VariableSpeed "PROPELLER OR AXIAL VARIABLE SPEED FAN OPEN COOLING TOWER 40.2 GPM/HP" - Inlet air wet-bulb temperature is outside model boundaries at -1.39.
   **   ~~~   **  ...Valid range = -1.00 to 26.67. Occurrence info = RUN PERIOD 1, 01/01 05:48 - 06:00
   **   ~~~   **  ...Inlet air wet-bulb temperature passed to the model = -1.000000
   **   ~~~   **  ...Wet-bulb temperatures outside model boundaries may not adversely affect tower performance.
   ** Warning ** CoolingTower:VariableSpeed "PROPELLER OR AXIAL VARIABLE SPEED FAN OPEN COOLING TOWER 40.2 GPM/HP" - Tower range temperature is outside model boundaries at 2.55E-003.
   **   ~~~   **  ...Valid range = 1.11 to 11.11. Occurrence info = RUN PERIOD 1, 01/01 06:00 - 06:30
   **   ~~~   **  ...Tower range temperature passed to the model = 2.54730E-003
   **   ~~~   **  ...Range temperatures outside model boundaries may not adversely affect tower performance.
   **   ~~~   **  ...This is not an unexpected occurrence when simulating actual conditions.
   ** Warning ** CoolingTower:VariableSpeed "PROPELLER OR AXIAL VARIABLE SPEED FAN OPEN COOLING TOWER 40.2 GPM/HP" - Inlet air wet-bulb temperature is outside model boundaries at -1.18.
   **   ~~~   **  ...Valid range = -1.00 to 26.67. Occurrence info = RUN PERIOD 1, 01/01 06:00 - 06:30
   **   ~~~   **  ...Inlet air wet-bulb temperature passed to the model = -1.000000
   **   ~~~   **  ...Wet-bulb temperatures outside model boundaries may not adversely affect tower performance.
   ** Warning ** CoolingTower:VariableSpeed "PROPELLER OR AXIAL VARIABLE SPEED FAN OPEN COOLING TOWER 40.2 GPM/HP" - Inlet air wet-bulb temperature is outside model boundaries at -1.18.
   **   ~~~   **  ...Valid range = -1.00 to 26.67. Occurrence info = RUN PERIOD 1, 01/01 06:30 - 07:00
   **   ~~~   **  ...Inlet air wet-bulb temperature passed to the model = -1.000000
   **   ~~~   **  ...Wet-bulb temperatures outside model boundaries may not adversely affect tower performance.
   ** Warning ** CoolingTower:VariableSpeed "PROPELLER OR AXIAL VARIABLE SPEED FAN OPEN COOLING TOWER 40.2 GPM/HP" - Inlet air wet-bulb temperature is outside model boundaries at -1.39.
   **   ~~~   **  ...Valid range = -1.00 to 26.67. Occurrence info = RUN PERIOD 1, 01/01 07:00 - 07:06
   **   ~~~   **  ...Inlet air wet-bulb temperature passed to the model = -1.000000
   **   ~~~   **  ...Wet-bulb temperatures outside model boundaries may not adversely affect tower performance.
   ** Warning ** More than 4% of time (350.4 hours) uncomfortable in one or more zones 
   **   ~~~   ** Based on ASHRAE 55-2004 graph (Section 5.2.1.1)
   **   ~~~   ** During Environment [01/01/2019 - 12/31/2019]: RUN PERIOD 1
   **   ~~~   ** 2679.0 hours were uncomfortable in zone: BUILDING STORY 1 THERMALZONE
   **   ~~~   ** 2502.0 hours were uncomfortable in zone: BUILDING STORY 4 THERMALZONE
   ** Warning ** The resource referenced by LifeCycleCost:UsePriceEscalation= "U.S. AVG  COMMERCIAL-ELECTRICITY" has no energy cost. 
   **   ~~~   ** ... It is likely that the wrong resource is used. The resource should match the meter used in Utility:Tariff.
   ** Warning ** The resource referenced by LifeCycleCost:UsePriceEscalation= "U.S. AVG  COMMERCIAL-DISTILLATE OIL" has no energy cost. 
   **   ~~~   ** ... It is likely that the wrong resource is used. The resource should match the meter used in Utility:Tariff.
   ** Warning ** The resource referenced by LifeCycleCost:UsePriceEscalation= "U.S. AVG  COMMERCIAL-RESIDUAL OIL" has no energy cost. 
   **   ~~~   ** ... It is likely that the wrong resource is used. The resource should match the meter used in Utility:Tariff.
   ** Warning ** The resource referenced by LifeCycleCost:UsePriceEscalation= "U.S. AVG  COMMERCIAL-NATURAL GAS" has no energy cost. 
   **   ~~~   ** ... It is likely that the wrong resource is used. The resource should match the meter used in Utility:Tariff.
   ** Warning ** The resource referenced by LifeCycleCost:UsePriceEscalation= "U.S. AVG  COMMERCIAL-COAL" has no energy cost. 
   **   ~~~   ** ... It is likely that the wrong resource is used. The resource should match the meter used in Utility:Tariff.
   ************* Simulation Error Summary *************
   ** Warning ** The following Report Variables were requested but not generated -- check.rdd file
   **   ~~~   ** Either the IDF did not contain these elements, the variable name is misspelled,
   **   ~~~   ** or the requested variable is an advanced output which requires Output : Diagnostics, DisplayAdvancedReportVariables;
   ************* Key=*, VarName=FANGERPMV, Frequency=TimeStep
   ************* Key=*, VarName=FANGERPPD, Frequency=TimeStep
   ************* Key=*, VarName=TIME NOT COMFORTABLE SUMMER CLOTHES, Frequency=TimeStep
   ************* Key=*, VarName=TIME NOT COMFORTABLE WINTER CLOTHES, Frequency=TimeStep
   ************* Key=*, VarName=TIME NOT COMFORTABLE SUMMER OR WINTER CLOTHES, Frequency=TimeStep
   ************* Key=*, VarName=DISTRICT COOLING CHILLED WATER RATE, Frequency=TimeStep
   ************* Key=*, VarName=DISTRICT COOLING MASS FLOW RATE, Frequency=TimeStep
   ************* Key=*, VarName=DISTRICT COOLING INLET TEMPERATURE, Frequency=TimeStep
   ************* Key=*, VarName=DISTRICT COOLING OUTLET TEMPERATURE, Frequency=TimeStep
   ************* Key=*, VarName=DISTRICT HEATING HOT WATER RATE, Frequency=TimeStep
   ************* Key=*, VarName=DISTRICT HEATING MASS FLOW RATE, Frequency=TimeStep
   ************* Key=*, VarName=DISTRICT HEATING INLET TEMPERATURE, Frequency=TimeStep
   ************* Key=*, VarName=DISTRICT HEATING OUTLET TEMPERATURE, Frequency=TimeStep
   ************* There are 8 unused schedules in input.
   ************* There are 13 unused week schedules in input.
   ************* There are 34 unused day schedules in input.
   ************* Use Output:Diagnostics,DisplayUnusedSchedules; to see them.
   *************
   ************* ===== Recurring Error Summary =====
   ************* The following recurring error messages occurred.
   *************
   *************  ** Warning ** CoolingTower:VariableSpeed "PROPELLER OR AXIAL VARIABLE SPEED FAN OPEN COOLING TOWER 40.2 GPM/HP" - Tower approach temperature is out of range error continues...
   *************  **   ~~~   **   This error occurred 13533 total times;
   *************  **   ~~~   **   during Warmup 0 times;
   *************  **   ~~~   **   during Sizing 0 times.
   *************  **   ~~~   **   Max=40.506779  Min=11.111112
   *************
   *************  ** Warning ** CoolingTower:VariableSpeed "PROPELLER OR AXIAL VARIABLE SPEED FAN OPEN COOLING TOWER 40.2 GPM/HP" - Tower range temperature is out of range error continues...
   *************  **   ~~~   **   This error occurred 10432 total times;
   *************  **   ~~~   **   during Warmup 0 times;
   *************  **   ~~~   **   during Sizing 0 times.
   *************  **   ~~~   **   Max=1.110726  Min=1.850341E-005
   *************
   *************  ** Warning ** CoolingTower:VariableSpeed "PROPELLER OR AXIAL VARIABLE SPEED FAN OPEN COOLING TOWER 40.2 GPM/HP" - Inlet air wet-bulb temperature is out of range error continues...
   *************  **   ~~~   **   This error occurred 5989 total times;
   *************  **   ~~~   **   during Warmup 0 times;
   *************  **   ~~~   **   during Sizing 0 times.
   *************  **   ~~~   **   Max=-1.00898  Min=-19.395668
   *************
   *************
   ************* ===== Final Error Summary =====
   ************* The following error categories occurred.  Consider correcting or noting.
   ************* Loads Initialization did not Converge
   ************* ..1) very high thermal mass such as very thick concrete (solution: increase max number of warmup
   ************* ..   days in the BUILDING object);
   ************* ..2) moderate mass and inadequate space conditioning such that the building keeps getting warmer
   ************* ..   and warmer on successive days (solution: add HVAC, check building thermal properties,
   ************* ..   check if infiltration is included, make sure HVAC properly controlled);
   ************* ..3) a soil layer modeled below the concrete slab - (solution remove this layer and read about
   ************* ..   ground temperatures in the Auxiliary Programs document).
   ************* ..4) unreasonable (too small) limits in the BUILDING object for temperature (.4 default) or
   ************* ..   loads tolerances (.04 default)
   ************* Nominally Unused Constructions
   ************* ..The nominally unused constructions warning is provided to alert you to potential conditions that can cause
   ************* ..extra time during simulation. Each construction is calculated by the algorithm indicated in the HeatBalanceAlgorithm
   ************* ..object. You may remove the constructions indicated (when you use the DisplayExtraWarnings option).
   *************
   ************* EnergyPlus Warmup Error Summary. During Warmup: 0 Warning; 1 Severe Errors.
   ************* EnergyPlus Sizing Error Summary. During Sizing: 28 Warning; 0 Severe Errors.
   ************* EnergyPlus Completed Successfully-- 30095 Warning; 1 Severe Errors; Elapsed Time=00hr 02min 14.80sec
