Program Version,EnergyPlus, Version 9.1.0-fafb9d5652, YMD=2020.03.26 13:33
! This file shows details about the branches, nodes, and other
! elements of the flow connections.
! This file is intended for use in "debugging" potential problems
! that may also be detected by the program, but may be more easily
! identified by "eye".
! This file is also intended to support software which draws a
! schematic diagram of the HVAC system.
! ===============================================================
! #Nodes,<Number of Unique Nodes>
 #Nodes,380
! <Node>,<NodeNumber>,<Node Name>,<Node Fluid Type>,<# Times Node Referenced After Definition>
 Node,1,BUILDING STORY 1 THERMALZONE VAV TERMINAL OUTLET AIR NODE,Air,4
 Node,2,BUILDING STORY 1 THERMALZONE RETURN AIR NODE,Air,2
 Node,3,BUILDING STORY 2 THERMALZONE VAV TERMINAL OUTLET AIR NODE,Air,4
 Node,4,BUILDING STORY 2 THERMALZONE RETURN AIR NODE,Air,2
 Node,5,BUILDING STORY 3 THERMALZONE VAV TERMINAL OUTLET AIR NODE,Air,4
 Node,6,BUILDING STORY 3 THERMALZONE RETURN AIR NODE,Air,2
 Node,7,BUILDING STORY 4 THERMALZONE PTAC OUTLET AIR NODE,Air,3
 Node,8,BUILDING STORY 4 THERMALZONE PTAC INLET AIR NODE,Air,3
 Node,9,BUILDING STORY 5 THERMALZONE VAV TERMINAL OUTLET AIR NODE,Air,4
 Node,10,BUILDING STORY 5 THERMALZONE RETURN AIR NODE,Air,2
 Node,11,BUILDING STORY 6 THERMALZONE VAV TERMINAL OUTLET AIR NODE,Air,4
 Node,12,BUILDING STORY 6 THERMALZONE RETURN AIR NODE,Air,2
 Node,13,BUILDING STORY 7 THERMALZONE PTAC OUTLET AIR NODE,Air,3
 Node,14,BUILDING STORY 7 THERMALZONE PTAC INLET AIR NODE,Air,3
 Node,15,BUILDING STORY 8 THERMALZONE VAV TERMINAL OUTLET AIR NODE,Air,4
 Node,16,BUILDING STORY 8 THERMALZONE RETURN AIR NODE,Air,2
 Node,17,1 ZONE VAV SUPPLY OUTLET NODE,Air,10
 Node,18,1 ZONE VAV DEMAND INLET NODE,Air,3
 Node,19,1 ZONE VAV 1 SUPPLY OUTLET NODE,Air,10
 Node,20,1 ZONE VAV 1 DEMAND INLET NODE,Air,3
 Node,21,1 ZONE VAV 2 SUPPLY OUTLET NODE,Air,10
 Node,22,1 ZONE VAV 2 DEMAND INLET NODE,Air,3
 Node,23,1 ZONE VAV 3 SUPPLY OUTLET NODE,Air,10
 Node,24,1 ZONE VAV 3 DEMAND INLET NODE,Air,3
 Node,25,1 ZONE VAV 4 SUPPLY OUTLET NODE,Air,10
 Node,26,1 ZONE VAV 4 DEMAND INLET NODE,Air,3
 Node,27,1 ZONE VAV 5 SUPPLY OUTLET NODE,Air,10
 Node,28,1 ZONE VAV 5 DEMAND INLET NODE,Air,3
 Node,29,1 ZONE VAV SUPPLY INLET NODE,Air,3
 Node,30,1 ZONE VAV MIXED AIR NODE,Air,5
 Node,31,1 ZONE VAV CLG COIL OUTLET AIR NODE,Air,5
 Node,32,1 ZONE VAV MAIN HTG COIL OUTLET AIR NODE,Air,8
 Node,33,1 ZONE VAV 1 SUPPLY INLET NODE,Air,3
 Node,34,1 ZONE VAV 1 MIXED AIR NODE,Air,5
 Node,35,1 ZONE VAV 1 CLG COIL OUTLET AIR NODE,Air,5
 Node,36,1 ZONE VAV 1 MAIN HTG COIL OUTLET AIR NODE,Air,8
 Node,37,1 ZONE VAV 2 SUPPLY INLET NODE,Air,3
 Node,38,1 ZONE VAV 2 MIXED AIR NODE,Air,5
 Node,39,1 ZONE VAV 2 CLG COIL OUTLET AIR NODE,Air,5
 Node,40,1 ZONE VAV 2 MAIN HTG COIL OUTLET AIR NODE,Air,8
 Node,41,1 ZONE VAV 3 SUPPLY INLET NODE,Air,3
 Node,42,1 ZONE VAV 3 MIXED AIR NODE,Air,5
 Node,43,1 ZONE VAV 3 CLG COIL OUTLET AIR NODE,Air,5
 Node,44,1 ZONE VAV 3 MAIN HTG COIL OUTLET AIR NODE,Air,8
 Node,45,1 ZONE VAV 4 SUPPLY INLET NODE,Air,3
 Node,46,1 ZONE VAV 4 MIXED AIR NODE,Air,5
 Node,47,1 ZONE VAV 4 CLG COIL OUTLET AIR NODE,Air,5
 Node,48,1 ZONE VAV 4 MAIN HTG COIL OUTLET AIR NODE,Air,8
 Node,49,1 ZONE VAV 5 SUPPLY INLET NODE,Air,3
 Node,50,1 ZONE VAV 5 MIXED AIR NODE,Air,5
 Node,51,1 ZONE VAV 5 CLG COIL OUTLET AIR NODE,Air,5
 Node,52,1 ZONE VAV 5 MAIN HTG COIL OUTLET AIR NODE,Air,8
 Node,53,CHILLED WATER LOOP SUPPLY INLET NODE,Water,2
 Node,54,CHILLED WATER LOOP PRIMARY PUMP OUTLET WATER NODE,Water,1
 Node,55,90.1-2013 WATERCOOLED  ROTARY SCREW CHILLER 0 SUPPLY INLET WATER NODE,Water,1
 Node,56,90.1-2013 WATERCOOLED  ROTARY SCREW CHILLER 0 SUPPLY OUTLET WATER NODE,Water,1
 Node,57,CHILLED WATER LOOP CHILLER BYPASS INLET WATER NODE,Water,1
 Node,58,CHILLED WATER LOOP CHILLER BYPASS OUTLET WATER NODE,Water,1
 Node,59,CHILLED WATER LOOP SUPPLY OUTLET INLET WATER NODE,Water,1
 Node,60,CHILLED WATER LOOP SUPPLY OUTLET NODE,Water,4
 Node,61,CHILLED WATER LOOP DEMAND INLET NODE,Water,2
 Node,62,CHILLED WATER LOOP SECONDARY PUMP INLET WATER NODE,Water,3
 Node,63,CHILLED WATER LOOP SECONDARY PUMP OUTLET WATER NODE,Water,1
 Node,64,CHILLED WATER LOOP COIL BYPASS INLET WATER NODE,Water,1
 Node,65,CHILLED WATER LOOP COIL BYPASS OUTLET WATER NODE,Water,1
 Node,66,1 ZONE VAV CLG COIL INLET WATER NODE,Water,2
 Node,67,1 ZONE VAV CLG COIL OUTLET WATER NODE,Water,1
 Node,68,1 ZONE VAV 1 CLG COIL INLET WATER NODE,Water,2
 Node,69,1 ZONE VAV 1 CLG COIL OUTLET WATER NODE,Water,1
 Node,70,1 ZONE VAV 2 CLG COIL INLET WATER NODE,Water,2
 Node,71,1 ZONE VAV 2 CLG COIL OUTLET WATER NODE,Water,1
 Node,72,1 ZONE VAV 3 CLG COIL INLET WATER NODE,Water,2
 Node,73,1 ZONE VAV 3 CLG COIL OUTLET WATER NODE,Water,1
 Node,74,1 ZONE VAV 4 CLG COIL INLET WATER NODE,Water,2
 Node,75,1 ZONE VAV 4 CLG COIL OUTLET WATER NODE,Water,1
 Node,76,1 ZONE VAV 5 CLG COIL INLET WATER NODE,Water,2
 Node,77,1 ZONE VAV 5 CLG COIL OUTLET WATER NODE,Water,1
 Node,78,CHILLED WATER LOOP DEMAND BYPASS PIPE INLET NODE,Water,1
 Node,79,CHILLED WATER LOOP DEMAND BYPASS PIPE OUTLET NODE,Water,1
 Node,80,CHILLED WATER LOOP DEMAND OUTLET INLET WATER NODE,Water,1
 Node,81,CHILLED WATER LOOP DEMAND OUTLET NODE,Water,2
 Node,82,CONDENSER WATER LOOP SUPPLY INLET NODE,Water,2
 Node,83,CONDENSER WATER LOOP CONSTANT PUMP OUTLET WATER NODE,Water,1
 Node,84,PROPELLER OR AXIAL VARIABLE SPEED FAN OPEN COOLING TOWER INLET WATER NODE,Water,1
 Node,85,PROPELLER OR AXIAL VARIABLE SPEED FAN OPEN COOLING TOWER OUTLET WATER NODE,Water,1
 Node,86,CONDENSER WATER LOOP COOLING TOWER BYPASS INLET WATER NODE,Water,1
 Node,87,CONDENSER WATER LOOP COOLING TOWER BYPASS OUTLET WATER NODE,Water,1
 Node,88,CONDENSER WATER LOOP SUPPLY OUTLET INLET WATER NODE,Water,1
 Node,89,CONDENSER WATER LOOP SUPPLY OUTLET NODE,Water,4
 Node,90,CONDENSER WATER LOOP DEMAND INLET NODE,Water,2
 Node,91,CONDENSER WATER LOOP DEMAND INLET OUTLET WATER NODE,Water,1
 Node,92,CONDENSER WATER LOOP CHILLER BYPASS INLET WATER NODE,Water,1
 Node,93,CONDENSER WATER LOOP CHILLER BYPASS OUTLET WATER NODE,Water,1
 Node,94,90.1-2013 WATERCOOLED  ROTARY SCREW CHILLER 0 DEMAND INLET WATER NODE,Water,1
 Node,95,90.1-2013 WATERCOOLED  ROTARY SCREW CHILLER 0 DEMAND OUTLET WATER NODE,Water,1
 Node,96,CONDENSER WATER LOOP DEMAND BYPASS PIPE INLET NODE,Water,1
 Node,97,CONDENSER WATER LOOP DEMAND BYPASS PIPE OUTLET NODE,Water,1
 Node,98,CONDENSER WATER LOOP DEMAND OUTLET INLET WATER NODE,Water,1
 Node,99,CONDENSER WATER LOOP DEMAND OUTLET NODE,Water,2
 Node,100,FULLSERVICERESTAURANT KITCHEN - 90.1-2013 SERVICE WATER BOOSTER LOOP SUPPLY INLET NODE,Water,2
 Node,101,BOOSTER WATER LOOP PUMP INLET WATER NODE,Water,3
 Node,102,BOOSTER WATER LOOP PUMP OUTLET WATER NODE,Water,1
 Node,103,6.0GAL ELECTRICITY BOOSTER WATER HEATER - 934KBTU/HR SUPPLY INLET WATER NODE,Water,1
 Node,104,6.0GAL ELECTRICITY BOOSTER WATER HEATER - 934KBTU/HR SUPPLY OUTLET WATER NODE,Water,1
 Node,105,PIPE ADIABATIC 5 INLET WATER NODE,Water,1
 Node,106,PIPE ADIABATIC 5 OUTLET WATER NODE,Water,1
 Node,107,PIPE ADIABATIC 7 INLET WATER NODE,Water,1
 Node,108,FULLSERVICERESTAURANT KITCHEN - 90.1-2013 SERVICE WATER BOOSTER LOOP SUPPLY OUTLET NODE,Water,5
 Node,109,FULLSERVICERESTAURANT KITCHEN - 90.1-2013 SERVICE WATER BOOSTER LOOP DEMAND INLET NODE,Water,2
 Node,110,PIPE ADIABATIC 8 OUTLET WATER NODE,Water,1
 Node,111,PIPE ADIABATIC 6 INLET WATER NODE,Water,1
 Node,112,PIPE ADIABATIC 6 OUTLET WATER NODE,Water,1
 Node,113,BOOSTER FULLSERVICERESTAURANT KITCHEN - 90.1-2013 WUC 77.25GPM AT 180F INLET WATER NODE,Water,1
 Node,114,BOOSTER FULLSERVICERESTAURANT KITCHEN - 90.1-2013 WUC 77.25GPM AT 180F OUTLET WATER NODE,Water,1
 Node,115,FULLSERVICERESTAURANT KITCHEN - 90.1-2013 SERVICE WATER BOOSTER LOOP DEMAND BYPASS PIPE INLET NODE,Water,1
 Node,116,FULLSERVICERESTAURANT KITCHEN - 90.1-2013 SERVICE WATER BOOSTER LOOP DEMAND BYPASS PIPE OUTLET NODE,Water,1
 Node,117,PIPE ADIABATIC 9 INLET WATER NODE,Water,1
 Node,118,FULLSERVICERESTAURANT KITCHEN - 90.1-2013 SERVICE WATER BOOSTER LOOP DEMAND OUTLET NODE,Water,2
 Node,119,FULLSERVICERESTAURANT KITCHEN - 90.1-2013 SERVICE WATER LOOP SUPPLY INLET NODE,Water,2
 Node,120,FULLSERVICERESTAURANT KITCHEN - 90.1-2013 SERVICE WATER LOOP WATER MAINS PRESSURE DRIVEN OUTLET WATER NODE,Water,1
 Node,121,4867GAL NATURALGAS WATER HEATER - 4867KBTU/HR SUPPLY INLET WATER NODE,Water,1
 Node,122,4867GAL NATURALGAS WATER HEATER - 4867KBTU/HR SUPPLY OUTLET WATER NODE,Water,1
 Node,123,PIPE ADIABATIC 1 INLET WATER NODE,Water,1
 Node,124,PIPE ADIABATIC 1 OUTLET WATER NODE,Water,1
 Node,125,PIPE ADIABATIC 3 INLET WATER NODE,Water,1
 Node,126,FULLSERVICERESTAURANT KITCHEN - 90.1-2013 SERVICE WATER LOOP SUPPLY OUTLET NODE,Water,4
 Node,127,FULLSERVICERESTAURANT KITCHEN - 90.1-2013 SERVICE WATER LOOP DEMAND INLET NODE,Water,2
 Node,128,FULLSERVICERESTAURANT KITCHEN - 90.1-2013 SERVICE WATER LOOP PIPE 20.0FT OUTLET WATER NODE,Water,1
 Node,129,PIPE ADIABATIC 2 INLET WATER NODE,Water,1
 Node,130,PIPE ADIABATIC 2 OUTLET WATER NODE,Water,1
 Node,131,FULLSERVICERESTAURANT KITCHEN - 90.1-2013 WUC 51.5GPM AT 140F INLET WATER NODE,Water,1
 Node,132,FULLSERVICERESTAURANT KITCHEN - 90.1-2013 WUC 51.5GPM AT 140F OUTLET WATER NODE,Water,1
 Node,133,HX FOR BOOSTER WATER HEATING DEMAND INLET WATER NODE,Water,1
 Node,134,MAINS WATER MAKEUP FOR SWH BOOSTER INLET WATER NODE,Water,3
 Node,135,MAINS WATER MAKEUP FOR SWH BOOSTER OUTLET WATER NODE,Water,1
 Node,136,FULLSERVICERESTAURANT KITCHEN - 90.1-2013 SERVICE WATER LOOP DEMAND BYPASS PIPE INLET NODE,Water,1
 Node,137,FULLSERVICERESTAURANT KITCHEN - 90.1-2013 SERVICE WATER LOOP DEMAND BYPASS PIPE OUTLET NODE,Water,1
 Node,138,PIPE ADIABATIC 4 INLET WATER NODE,Water,1
 Node,139,FULLSERVICERESTAURANT KITCHEN - 90.1-2013 SERVICE WATER LOOP DEMAND OUTLET NODE,Water,2
 Node,140,HOT WATER LOOP SUPPLY INLET NODE,Water,2
 Node,141,HOT WATER LOOP PUMP OUTLET WATER NODE,Water,1
 Node,142,BOILER INLET WATER NODE,Water,1
 Node,143,BOILER OUTLET WATER NODE,Water,1
 Node,144,HOT WATER LOOP SUPPLY EQUIPMENT BYPASS INLET WATER NODE,Water,1
 Node,145,HOT WATER LOOP SUPPLY EQUIPMENT BYPASS OUTLET WATER NODE,Water,1
 Node,146,HOT WATER LOOP SUPPLY OUTLET INLET WATER NODE,Water,1
 Node,147,HOT WATER LOOP SUPPLY OUTLET NODE,Water,4
 Node,148,HOT WATER LOOP DEMAND INLET NODE,Water,2
 Node,149,HOT WATER LOOP DEMAND INLET OUTLET WATER NODE,Water,1
 Node,150,HOT WATER LOOP COIL BYPASS INLET WATER NODE,Water,1
 Node,151,HOT WATER LOOP COIL BYPASS OUTLET WATER NODE,Water,1
 Node,152,1 ZONE VAV MAIN HTG COIL INLET WATER NODE,Water,2
 Node,153,1 ZONE VAV MAIN HTG COIL OUTLET WATER NODE,Water,1
 Node,154,BUILDING STORY 2 THERMALZONE REHEAT COIL INLET WATER NODE,Water,1
 Node,155,BUILDING STORY 2 THERMALZONE REHEAT COIL OUTLET WATER NODE,Water,1
 Node,156,1 ZONE VAV 1 MAIN HTG COIL INLET WATER NODE,Water,2
 Node,157,1 ZONE VAV 1 MAIN HTG COIL OUTLET WATER NODE,Water,1
 Node,158,BUILDING STORY 8 THERMALZONE REHEAT COIL INLET WATER NODE,Water,1
 Node,159,BUILDING STORY 8 THERMALZONE REHEAT COIL OUTLET WATER NODE,Water,1
 Node,160,HOT WATER LOOP WATER HTG COIL INLET WATER NODE,Water,2
 Node,161,HOT WATER LOOP WATER HTG COIL OUTLET WATER NODE,Water,1
 Node,162,HOT WATER LOOP WATER HTG COIL 1 INLET WATER NODE,Water,2
 Node,163,HOT WATER LOOP WATER HTG COIL 1 OUTLET WATER NODE,Water,1
 Node,164,1 ZONE VAV 2 MAIN HTG COIL INLET WATER NODE,Water,2
 Node,165,1 ZONE VAV 2 MAIN HTG COIL OUTLET WATER NODE,Water,1
 Node,166,BUILDING STORY 1 THERMALZONE REHEAT COIL INLET WATER NODE,Water,1
 Node,167,BUILDING STORY 1 THERMALZONE REHEAT COIL OUTLET WATER NODE,Water,1
 Node,168,1 ZONE VAV 3 MAIN HTG COIL INLET WATER NODE,Water,2
 Node,169,1 ZONE VAV 3 MAIN HTG COIL OUTLET WATER NODE,Water,1
 Node,170,BUILDING STORY 3 THERMALZONE REHEAT COIL INLET WATER NODE,Water,1
 Node,171,BUILDING STORY 3 THERMALZONE REHEAT COIL OUTLET WATER NODE,Water,1
 Node,172,1 ZONE VAV 4 MAIN HTG COIL INLET WATER NODE,Water,2
 Node,173,1 ZONE VAV 4 MAIN HTG COIL OUTLET WATER NODE,Water,1
 Node,174,BUILDING STORY 5 THERMALZONE REHEAT COIL INLET WATER NODE,Water,1
 Node,175,BUILDING STORY 5 THERMALZONE REHEAT COIL OUTLET WATER NODE,Water,1
 Node,176,1 ZONE VAV 5 MAIN HTG COIL INLET WATER NODE,Water,2
 Node,177,1 ZONE VAV 5 MAIN HTG COIL OUTLET WATER NODE,Water,1
 Node,178,BUILDING STORY 6 THERMALZONE REHEAT COIL INLET WATER NODE,Water,1
 Node,179,BUILDING STORY 6 THERMALZONE REHEAT COIL OUTLET WATER NODE,Water,1
 Node,180,HOT WATER LOOP DEMAND BYPASS PIPE INLET NODE,Water,1
 Node,181,HOT WATER LOOP DEMAND BYPASS PIPE OUTLET NODE,Water,1
 Node,182,HOT WATER LOOP DEMAND OUTLET INLET WATER NODE,Water,1
 Node,183,HOT WATER LOOP DEMAND OUTLET NODE,Water,2
 Node,184,LARGEHOTEL KITCHEN - 90.1-2013 SERVICE WATER BOOSTER LOOP SUPPLY INLET NODE,Water,2
 Node,185,BOOSTER WATER LOOP PUMP 1 INLET WATER NODE,Water,3
 Node,186,BOOSTER WATER LOOP PUMP 1 OUTLET WATER NODE,Water,1
 Node,187,6.0GAL ELECTRICITY BOOSTER WATER HEATER - 71KBTU/HR SUPPLY INLET WATER NODE,Water,1
 Node,188,6.0GAL ELECTRICITY BOOSTER WATER HEATER - 71KBTU/HR SUPPLY OUTLET WATER NODE,Water,1
 Node,189,PIPE ADIABATIC 14 INLET WATER NODE,Water,1
 Node,190,PIPE ADIABATIC 14 OUTLET WATER NODE,Water,1
 Node,191,PIPE ADIABATIC 16 INLET WATER NODE,Water,1
 Node,192,LARGEHOTEL KITCHEN - 90.1-2013 SERVICE WATER BOOSTER LOOP SUPPLY OUTLET NODE,Water,5
 Node,193,LARGEHOTEL KITCHEN - 90.1-2013 SERVICE WATER BOOSTER LOOP DEMAND INLET NODE,Water,2
 Node,194,PIPE ADIABATIC 17 OUTLET WATER NODE,Water,1
 Node,195,PIPE ADIABATIC 15 INLET WATER NODE,Water,1
 Node,196,PIPE ADIABATIC 15 OUTLET WATER NODE,Water,1
 Node,197,BOOSTER LARGEHOTEL KITCHEN - 90.1-2013 WUC 5.9GPM AT 180F INLET WATER NODE,Water,1
 Node,198,BOOSTER LARGEHOTEL KITCHEN - 90.1-2013 WUC 5.9GPM AT 180F OUTLET WATER NODE,Water,1
 Node,199,LARGEHOTEL KITCHEN - 90.1-2013 SERVICE WATER BOOSTER LOOP DEMAND BYPASS PIPE INLET NODE,Water,1
 Node,200,LARGEHOTEL KITCHEN - 90.1-2013 SERVICE WATER BOOSTER LOOP DEMAND BYPASS PIPE OUTLET NODE,Water,1
 Node,201,PIPE ADIABATIC 18 INLET WATER NODE,Water,1
 Node,202,LARGEHOTEL KITCHEN - 90.1-2013 SERVICE WATER BOOSTER LOOP DEMAND OUTLET NODE,Water,2
 Node,203,LARGEHOTEL KITCHEN - 90.1-2013 SERVICE WATER LOOP SUPPLY INLET NODE,Water,2
 Node,204,LARGEHOTEL KITCHEN - 90.1-2013 SERVICE WATER LOOP WATER MAINS PRESSURE DRIVEN OUTLET WATER NODE,Water,1
 Node,205,372GAL ELECTRICITY WATER HEATER - 372KBTU/HR SUPPLY INLET WATER NODE,Water,1
 Node,206,372GAL ELECTRICITY WATER HEATER - 372KBTU/HR SUPPLY OUTLET WATER NODE,Water,1
 Node,207,PIPE ADIABATIC 10 INLET WATER NODE,Water,1
 Node,208,PIPE ADIABATIC 10 OUTLET WATER NODE,Water,1
 Node,209,PIPE ADIABATIC 12 INLET WATER NODE,Water,1
 Node,210,LARGEHOTEL KITCHEN - 90.1-2013 SERVICE WATER LOOP SUPPLY OUTLET NODE,Water,4
 Node,211,LARGEHOTEL KITCHEN - 90.1-2013 SERVICE WATER LOOP DEMAND INLET NODE,Water,2
 Node,212,LARGEHOTEL KITCHEN - 90.1-2013 SERVICE WATER LOOP PIPE 20.0FT OUTLET WATER NODE,Water,1
 Node,213,PIPE ADIABATIC 11 INLET WATER NODE,Water,1
 Node,214,PIPE ADIABATIC 11 OUTLET WATER NODE,Water,1
 Node,215,LARGEHOTEL KITCHEN - 90.1-2013 WUC 3.93GPM AT 140F INLET WATER NODE,Water,1
 Node,216,LARGEHOTEL KITCHEN - 90.1-2013 WUC 3.93GPM AT 140F OUTLET WATER NODE,Water,1
 Node,217,HX FOR BOOSTER WATER HEATING 1 DEMAND INLET WATER NODE,Water,1
 Node,218,MAINS WATER MAKEUP FOR SWH BOOSTER 1 INLET WATER NODE,Water,3
 Node,219,MAINS WATER MAKEUP FOR SWH BOOSTER 1 OUTLET WATER NODE,Water,1
 Node,220,LARGEHOTEL KITCHEN - 90.1-2013 SERVICE WATER LOOP DEMAND BYPASS PIPE INLET NODE,Water,1
 Node,221,LARGEHOTEL KITCHEN - 90.1-2013 SERVICE WATER LOOP DEMAND BYPASS PIPE OUTLET NODE,Water,1
 Node,222,PIPE ADIABATIC 13 INLET WATER NODE,Water,1
 Node,223,LARGEHOTEL KITCHEN - 90.1-2013 SERVICE WATER LOOP DEMAND OUTLET NODE,Water,2
 Node,224,LARGEHOTEL LAUNDRY - 90.1-2013 SERVICE WATER LOOP SUPPLY INLET NODE,Water,2
 Node,225,LARGEHOTEL LAUNDRY - 90.1-2013 SERVICE WATER LOOP WATER MAINS PRESSURE DRIVEN OUTLET WATER NODE,Water,1
 Node,226,732GAL ELECTRICITY WATER HEATER - 732KBTU/HR SUPPLY INLET WATER NODE,Water,1
 Node,227,732GAL ELECTRICITY WATER HEATER - 732KBTU/HR SUPPLY OUTLET WATER NODE,Water,1
 Node,228,PIPE ADIABATIC 19 INLET WATER NODE,Water,1
 Node,229,PIPE ADIABATIC 19 OUTLET WATER NODE,Water,1
 Node,230,PIPE ADIABATIC 21 INLET WATER NODE,Water,1
 Node,231,LARGEHOTEL LAUNDRY - 90.1-2013 SERVICE WATER LOOP SUPPLY OUTLET NODE,Water,4
 Node,232,LARGEHOTEL LAUNDRY - 90.1-2013 SERVICE WATER LOOP DEMAND INLET NODE,Water,2
 Node,233,LARGEHOTEL LAUNDRY - 90.1-2013 SERVICE WATER LOOP PIPE 20.0FT OUTLET WATER NODE,Water,1
 Node,234,PIPE ADIABATIC 20 INLET WATER NODE,Water,1
 Node,235,PIPE ADIABATIC 20 OUTLET WATER NODE,Water,1
 Node,236,LARGEHOTEL LAUNDRY - 90.1-2013 WUC 11.62GPM AT 140F INLET WATER NODE,Water,1
 Node,237,LARGEHOTEL LAUNDRY - 90.1-2013 WUC 11.62GPM AT 140F OUTLET WATER NODE,Water,1
 Node,238,LARGEHOTEL LAUNDRY - 90.1-2013 SERVICE WATER LOOP DEMAND BYPASS PIPE INLET NODE,Water,1
 Node,239,LARGEHOTEL LAUNDRY - 90.1-2013 SERVICE WATER LOOP DEMAND BYPASS PIPE OUTLET NODE,Water,1
 Node,240,PIPE ADIABATIC 22 INLET WATER NODE,Water,1
 Node,241,LARGEHOTEL LAUNDRY - 90.1-2013 SERVICE WATER LOOP DEMAND OUTLET NODE,Water,2
 Node,242,LARGEHOTEL SHARED SERVICE WATER LOOP SUPPLY INLET NODE,Water,2
 Node,243,LARGEHOTEL SHARED SERVICE WATER LOOP CIRCULATOR PUMP OUTLET WATER NODE,Water,1
 Node,244,555GAL ELECTRICITY WATER HEATER - 555KBTU/HR SUPPLY INLET WATER NODE,Water,1
 Node,245,555GAL ELECTRICITY WATER HEATER - 555KBTU/HR SUPPLY OUTLET WATER NODE,Water,1
 Node,246,PIPE ADIABATIC 35 INLET WATER NODE,Water,1
 Node,247,PIPE ADIABATIC 35 OUTLET WATER NODE,Water,1
 Node,248,PIPE ADIABATIC 37 INLET WATER NODE,Water,1
 Node,249,LARGEHOTEL SHARED SERVICE WATER LOOP SUPPLY OUTLET NODE,Water,4
 Node,250,LARGEHOTEL SHARED SERVICE WATER LOOP DEMAND INLET NODE,Water,2
 Node,251,LARGEHOTEL SHARED SERVICE WATER LOOP PIPE 835.4948405086806FT OUTLET WATER NODE,Water,1
 Node,252,PIPE ADIABATIC 36 INLET WATER NODE,Water,1
 Node,253,PIPE ADIABATIC 36 OUTLET WATER NODE,Water,1
 Node,254,LARGEHOTEL GUESTROOM - 90.1-2013 WUC 11.02GPM AT 140F INLET WATER NODE,Water,1
 Node,255,LARGEHOTEL GUESTROOM - 90.1-2013 WUC 11.02GPM AT 140F OUTLET WATER NODE,Water,1
 Node,256,LARGEHOTEL SHARED SERVICE WATER LOOP DEMAND BYPASS PIPE INLET NODE,Water,1
 Node,257,LARGEHOTEL SHARED SERVICE WATER LOOP DEMAND BYPASS PIPE OUTLET NODE,Water,1
 Node,258,PIPE ADIABATIC 38 INLET WATER NODE,Water,1
 Node,259,LARGEHOTEL SHARED SERVICE WATER LOOP DEMAND OUTLET NODE,Water,2
 Node,260,OFFICE SHARED SERVICE WATER LOOP SUPPLY INLET NODE,Water,2
 Node,261,OFFICE SHARED SERVICE WATER LOOP CIRCULATOR PUMP OUTLET WATER NODE,Water,1
 Node,262,109GAL ELECTRICITY WATER HEATER - 109KBTU/HR SUPPLY INLET WATER NODE,Water,1
 Node,263,109GAL ELECTRICITY WATER HEATER - 109KBTU/HR SUPPLY OUTLET WATER NODE,Water,1
 Node,264,PIPE ADIABATIC 39 INLET WATER NODE,Water,1
 Node,265,PIPE ADIABATIC 39 OUTLET WATER NODE,Water,1
 Node,266,PIPE ADIABATIC 41 INLET WATER NODE,Water,1
 Node,267,OFFICE SHARED SERVICE WATER LOOP SUPPLY OUTLET NODE,Water,4
 Node,268,OFFICE SHARED SERVICE WATER LOOP DEMAND INLET NODE,Water,2
 Node,269,OFFICE SHARED SERVICE WATER LOOP PIPE 803.4948405086806FT OUTLET WATER NODE,Water,1
 Node,270,PIPE ADIABATIC 40 INLET WATER NODE,Water,1
 Node,271,PIPE ADIABATIC 40 OUTLET WATER NODE,Water,1
 Node,272,OFFICE WHOLEBUILDING - MD OFFICE - 90.1-2013 WUC 3.04GPM AT 140F INLET WATER NODE,Water,1
 Node,273,OFFICE WHOLEBUILDING - MD OFFICE - 90.1-2013 WUC 3.04GPM AT 140F OUTLET WATER NODE,Water,1
 Node,274,OFFICE SHARED SERVICE WATER LOOP DEMAND BYPASS PIPE INLET NODE,Water,1
 Node,275,OFFICE SHARED SERVICE WATER LOOP DEMAND BYPASS PIPE OUTLET NODE,Water,1
 Node,276,PIPE ADIABATIC 42 INLET WATER NODE,Water,1
 Node,277,OFFICE SHARED SERVICE WATER LOOP DEMAND OUTLET NODE,Water,2
 Node,278,STRIPMALL STRIP MALL - TYPE 1 - 90.1-2013 SERVICE WATER LOOP SUPPLY INLET NODE,Water,2
 Node,279,STRIPMALL STRIP MALL - TYPE 1 - 90.1-2013 SERVICE WATER LOOP WATER MAINS PRESSURE DRIVEN OUTLET WATER NODE,Water,1
 Node,280,36X 50GAL ELECTRICITY WATER HEATER - 20KBTU/HR SUPPLY INLET WATER NODE,Water,1
 Node,281,36X 50GAL ELECTRICITY WATER HEATER - 20KBTU/HR SUPPLY OUTLET WATER NODE,Water,1
 Node,282,PIPE ADIABATIC 23 INLET WATER NODE,Water,1
 Node,283,PIPE ADIABATIC 23 OUTLET WATER NODE,Water,1
 Node,284,PIPE ADIABATIC 25 INLET WATER NODE,Water,1
 Node,285,STRIPMALL STRIP MALL - TYPE 1 - 90.1-2013 SERVICE WATER LOOP SUPPLY OUTLET NODE,Water,4
 Node,286,STRIPMALL STRIP MALL - TYPE 1 - 90.1-2013 SERVICE WATER LOOP DEMAND INLET NODE,Water,2
 Node,287,STRIPMALL STRIP MALL - TYPE 1 - 90.1-2013 SERVICE WATER LOOP PIPE 720.0FT OUTLET WATER NODE,Water,1
 Node,288,PIPE ADIABATIC 24 INLET WATER NODE,Water,1
 Node,289,PIPE ADIABATIC 24 OUTLET WATER NODE,Water,1
 Node,290,STRIPMALL STRIP MALL - TYPE 1 - 90.1-2013 36 UNITS WUC 1.08GPM AT 140F INLET WATER NODE,Water,1
 Node,291,STRIPMALL STRIP MALL - TYPE 1 - 90.1-2013 36 UNITS WUC 1.08GPM AT 140F OUTLET WATER NODE,Water,1
 Node,292,STRIPMALL STRIP MALL - TYPE 1 - 90.1-2013 SERVICE WATER LOOP DEMAND BYPASS PIPE INLET NODE,Water,1
 Node,293,STRIPMALL STRIP MALL - TYPE 1 - 90.1-2013 SERVICE WATER LOOP DEMAND BYPASS PIPE OUTLET NODE,Water,1
 Node,294,PIPE ADIABATIC 26 INLET WATER NODE,Water,1
 Node,295,STRIPMALL STRIP MALL - TYPE 1 - 90.1-2013 SERVICE WATER LOOP DEMAND OUTLET NODE,Water,2
 Node,296,STRIPMALL STRIP MALL - TYPE 2 - 90.1-2013 SERVICE WATER LOOP SUPPLY INLET NODE,Water,2
 Node,297,STRIPMALL STRIP MALL - TYPE 2 - 90.1-2013 SERVICE WATER LOOP WATER MAINS PRESSURE DRIVEN OUTLET WATER NODE,Water,1
 Node,298,36X 50GAL ELECTRICITY WATER HEATER - 20KBTU/HR 1 SUPPLY INLET WATER NODE,Water,1
 Node,299,36X 50GAL ELECTRICITY WATER HEATER - 20KBTU/HR 1 SUPPLY OUTLET WATER NODE,Water,1
 Node,300,PIPE ADIABATIC 27 INLET WATER NODE,Water,1
 Node,301,PIPE ADIABATIC 27 OUTLET WATER NODE,Water,1
 Node,302,PIPE ADIABATIC 29 INLET WATER NODE,Water,1
 Node,303,STRIPMALL STRIP MALL - TYPE 2 - 90.1-2013 SERVICE WATER LOOP SUPPLY OUTLET NODE,Water,4
 Node,304,STRIPMALL STRIP MALL - TYPE 2 - 90.1-2013 SERVICE WATER LOOP DEMAND INLET NODE,Water,2
 Node,305,STRIPMALL STRIP MALL - TYPE 2 - 90.1-2013 SERVICE WATER LOOP PIPE 720.0FT OUTLET WATER NODE,Water,1
 Node,306,PIPE ADIABATIC 28 INLET WATER NODE,Water,1
 Node,307,PIPE ADIABATIC 28 OUTLET WATER NODE,Water,1
 Node,308,STRIPMALL STRIP MALL - TYPE 2 - 90.1-2013 36 UNITS WUC 1.08GPM AT 140F INLET WATER NODE,Water,1
 Node,309,STRIPMALL STRIP MALL - TYPE 2 - 90.1-2013 36 UNITS WUC 1.08GPM AT 140F OUTLET WATER NODE,Water,1
 Node,310,STRIPMALL STRIP MALL - TYPE 2 - 90.1-2013 SERVICE WATER LOOP DEMAND BYPASS PIPE INLET NODE,Water,1
 Node,311,STRIPMALL STRIP MALL - TYPE 2 - 90.1-2013 SERVICE WATER LOOP DEMAND BYPASS PIPE OUTLET NODE,Water,1
 Node,312,PIPE ADIABATIC 30 INLET WATER NODE,Water,1
 Node,313,STRIPMALL STRIP MALL - TYPE 2 - 90.1-2013 SERVICE WATER LOOP DEMAND OUTLET NODE,Water,2
 Node,314,STRIPMALL STRIP MALL - TYPE 3 - 90.1-2013 SERVICE WATER LOOP SUPPLY INLET NODE,Water,2
 Node,315,STRIPMALL STRIP MALL - TYPE 3 - 90.1-2013 SERVICE WATER LOOP WATER MAINS PRESSURE DRIVEN OUTLET WATER NODE,Water,1
 Node,316,71X 50GAL ELECTRICITY WATER HEATER - 20KBTU/HR SUPPLY INLET WATER NODE,Water,1
 Node,317,71X 50GAL ELECTRICITY WATER HEATER - 20KBTU/HR SUPPLY OUTLET WATER NODE,Water,1
 Node,318,PIPE ADIABATIC 31 INLET WATER NODE,Water,1
 Node,319,PIPE ADIABATIC 31 OUTLET WATER NODE,Water,1
 Node,320,PIPE ADIABATIC 33 INLET WATER NODE,Water,1
 Node,321,STRIPMALL STRIP MALL - TYPE 3 - 90.1-2013 SERVICE WATER LOOP SUPPLY OUTLET NODE,Water,4
 Node,322,STRIPMALL STRIP MALL - TYPE 3 - 90.1-2013 SERVICE WATER LOOP DEMAND INLET NODE,Water,2
 Node,323,STRIPMALL STRIP MALL - TYPE 3 - 90.1-2013 SERVICE WATER LOOP PIPE 1420.0FT OUTLET WATER NODE,Water,1
 Node,324,PIPE ADIABATIC 32 INLET WATER NODE,Water,1
 Node,325,PIPE ADIABATIC 32 OUTLET WATER NODE,Water,1
 Node,326,STRIPMALL STRIP MALL - TYPE 3 - 90.1-2013 71 UNITS WUC 2.13GPM AT 140F INLET WATER NODE,Water,1
 Node,327,STRIPMALL STRIP MALL - TYPE 3 - 90.1-2013 71 UNITS WUC 2.13GPM AT 140F OUTLET WATER NODE,Water,1
 Node,328,STRIPMALL STRIP MALL - TYPE 3 - 90.1-2013 SERVICE WATER LOOP DEMAND BYPASS PIPE INLET NODE,Water,1
 Node,329,STRIPMALL STRIP MALL - TYPE 3 - 90.1-2013 SERVICE WATER LOOP DEMAND BYPASS PIPE OUTLET NODE,Water,1
 Node,330,PIPE ADIABATIC 34 INLET WATER NODE,Water,1
 Node,331,STRIPMALL STRIP MALL - TYPE 3 - 90.1-2013 SERVICE WATER LOOP DEMAND OUTLET NODE,Water,2
 Node,332,BUILDING STORY 1 THERMALZONE ZONE AIR NODE,Air,0
 Node,333,BUILDING STORY 2 THERMALZONE ZONE AIR NODE,Air,0
 Node,334,BUILDING STORY 3 THERMALZONE ZONE AIR NODE,Air,0
 Node,335,BUILDING STORY 4 THERMALZONE ZONE AIR NODE,Air,0
 Node,336,BUILDING STORY 5 THERMALZONE ZONE AIR NODE,Air,0
 Node,337,BUILDING STORY 6 THERMALZONE ZONE AIR NODE,Air,0
 Node,338,BUILDING STORY 7 THERMALZONE ZONE AIR NODE,Air,0
 Node,339,BUILDING STORY 8 THERMALZONE ZONE AIR NODE,Air,0
 Node,340,1 ZONE VAV DEMAND OUTLET NODE,Air,2
 Node,341,1 ZONE VAV 1 DEMAND OUTLET NODE,Air,2
 Node,342,1 ZONE VAV 2 DEMAND OUTLET NODE,Air,2
 Node,343,1 ZONE VAV 3 DEMAND OUTLET NODE,Air,2
 Node,344,1 ZONE VAV 4 DEMAND OUTLET NODE,Air,2
 Node,345,1 ZONE VAV 5 DEMAND OUTLET NODE,Air,2
 Node,346,BUILDING STORY 4 THERMALZONE PTAC OA NODE,Air,1
 Node,347,BUILDING STORY 7 THERMALZONE PTAC OA NODE,Air,1
 Node,348,1 ZONE VAV OUTDOOR AIR NODE,Air,2
 Node,349,1 ZONE VAV 1 OUTDOOR AIR NODE,Air,2
 Node,350,1 ZONE VAV 2 OUTDOOR AIR NODE,Air,2
 Node,351,1 ZONE VAV 3 OUTDOOR AIR NODE,Air,2
 Node,352,1 ZONE VAV 4 OUTDOOR AIR NODE,Air,2
 Node,353,1 ZONE VAV 5 OUTDOOR AIR NODE,Air,2
 Node,354,MODEL OUTDOOR AIR NODE,Air,0
 Node,355,BUILDING STORY 2 THERMALZONE VAV TERMINAL INLET AIR NODE,Air,1
 Node,356,BUILDING STORY 8 THERMALZONE VAV TERMINAL INLET AIR NODE,Air,1
 Node,357,BUILDING STORY 1 THERMALZONE VAV TERMINAL INLET AIR NODE,Air,1
 Node,358,BUILDING STORY 3 THERMALZONE VAV TERMINAL INLET AIR NODE,Air,1
 Node,359,BUILDING STORY 5 THERMALZONE VAV TERMINAL INLET AIR NODE,Air,1
 Node,360,BUILDING STORY 6 THERMALZONE VAV TERMINAL INLET AIR NODE,Air,1
 Node,361,BUILDING STORY 1 THERMALZONE VAV TERMINAL DAMPER OUTLET,Air,1
 Node,362,BUILDING STORY 2 THERMALZONE VAV TERMINAL DAMPER OUTLET,Air,1
 Node,363,BUILDING STORY 3 THERMALZONE VAV TERMINAL DAMPER OUTLET,Air,1
 Node,364,BUILDING STORY 4 THERMALZONE PTAC COOLING COIL OUTLET NODE,Air,1
 Node,365,BUILDING STORY 4 THERMALZONE PTAC HEATING COIL OUTLET NODE,Air,1
 Node,366,BUILDING STORY 5 THERMALZONE VAV TERMINAL DAMPER OUTLET,Air,1
 Node,367,BUILDING STORY 6 THERMALZONE VAV TERMINAL DAMPER OUTLET,Air,1
 Node,368,BUILDING STORY 7 THERMALZONE PTAC COOLING COIL OUTLET NODE,Air,1
 Node,369,BUILDING STORY 7 THERMALZONE PTAC HEATING COIL OUTLET NODE,Air,1
 Node,370,BUILDING STORY 8 THERMALZONE VAV TERMINAL DAMPER OUTLET,Air,1
 Node,371,BUILDING STORY 4 THERMALZONE PTAC MIXED AIR NODE,Air,1
 Node,372,BUILDING STORY 4 THERMALZONE PTAC RELIEF AIR NODE,Air,0
 Node,373,BUILDING STORY 7 THERMALZONE PTAC MIXED AIR NODE,Air,1
 Node,374,BUILDING STORY 7 THERMALZONE PTAC RELIEF AIR NODE,Air,0
 Node,375,1 ZONE VAV RELIEF AIR NODE,Air,1
 Node,376,1 ZONE VAV 1 RELIEF AIR NODE,Air,1
 Node,377,1 ZONE VAV 2 RELIEF AIR NODE,Air,1
 Node,378,1 ZONE VAV 3 RELIEF AIR NODE,Air,1
 Node,379,1 ZONE VAV 4 RELIEF AIR NODE,Air,1
 Node,380,1 ZONE VAV 5 RELIEF AIR NODE,Air,1
! ===============================================================
! Suspicious nodes have 0 references.  It is normal for some nodes, however.
! Listing nodes with 0 references (culled from previous list):
! <Suspicious Node>,<NodeNumber>,<Node Name>,<Node Fluid Type>,<# Times Node Referenced After Definition>
 Suspicious Node,332,BUILDING STORY 1 THERMALZONE ZONE AIR NODE,Air,0
 Suspicious Node,333,BUILDING STORY 2 THERMALZONE ZONE AIR NODE,Air,0
 Suspicious Node,334,BUILDING STORY 3 THERMALZONE ZONE AIR NODE,Air,0
 Suspicious Node,335,BUILDING STORY 4 THERMALZONE ZONE AIR NODE,Air,0
 Suspicious Node,336,BUILDING STORY 5 THERMALZONE ZONE AIR NODE,Air,0
 Suspicious Node,337,BUILDING STORY 6 THERMALZONE ZONE AIR NODE,Air,0
 Suspicious Node,338,BUILDING STORY 7 THERMALZONE ZONE AIR NODE,Air,0
 Suspicious Node,339,BUILDING STORY 8 THERMALZONE ZONE AIR NODE,Air,0
 Suspicious Node,354,MODEL OUTDOOR AIR NODE,Air,0
 Suspicious Node,372,BUILDING STORY 4 THERMALZONE PTAC RELIEF AIR NODE,Air,0
 Suspicious Node,374,BUILDING STORY 7 THERMALZONE PTAC RELIEF AIR NODE,Air,0
! ===============================================================
! <#Branch Lists>,<Number of Branch Lists>
 #Branch Lists,32
! <Branch List>,<Branch List Count>,<Branch List Name>,<Loop Name>,<Loop Type>,<Number of Branches>
! <Branch>,<Branch Count>,<Branch Name>,<Loop Name>,<Loop Type>,<Branch Inlet Node Name>,<Branch Outlet Node Name>
 Branch List,1,1 ZONE VAV SUPPLY BRANCHES,1 ZONE VAV,Air,1
   Branch,1,1 ZONE VAV MAIN BRANCH,1 ZONE VAV,Air,1 ZONE VAV SUPPLY INLET NODE,1 ZONE VAV SUPPLY OUTLET NODE
 Branch List,2,1 ZONE VAV 1 SUPPLY BRANCHES,1 ZONE VAV 1,Air,1
   Branch,1,1 ZONE VAV 1 MAIN BRANCH,1 ZONE VAV 1,Air,1 ZONE VAV 1 SUPPLY INLET NODE,1 ZONE VAV 1 SUPPLY OUTLET NODE
 Branch List,3,1 ZONE VAV 2 SUPPLY BRANCHES,1 ZONE VAV 2,Air,1
   Branch,1,1 ZONE VAV 2 MAIN BRANCH,1 ZONE VAV 2,Air,1 ZONE VAV 2 SUPPLY INLET NODE,1 ZONE VAV 2 SUPPLY OUTLET NODE
 Branch List,4,1 ZONE VAV 3 SUPPLY BRANCHES,1 ZONE VAV 3,Air,1
   Branch,1,1 ZONE VAV 3 MAIN BRANCH,1 ZONE VAV 3,Air,1 ZONE VAV 3 SUPPLY INLET NODE,1 ZONE VAV 3 SUPPLY OUTLET NODE
 Branch List,5,1 ZONE VAV 4 SUPPLY BRANCHES,1 ZONE VAV 4,Air,1
   Branch,1,1 ZONE VAV 4 MAIN BRANCH,1 ZONE VAV 4,Air,1 ZONE VAV 4 SUPPLY INLET NODE,1 ZONE VAV 4 SUPPLY OUTLET NODE
 Branch List,6,1 ZONE VAV 5 SUPPLY BRANCHES,1 ZONE VAV 5,Air,1
   Branch,1,1 ZONE VAV 5 MAIN BRANCH,1 ZONE VAV 5,Air,1 ZONE VAV 5 SUPPLY INLET NODE,1 ZONE VAV 5 SUPPLY OUTLET NODE
 Branch List,7,CHILLED WATER LOOP SUPPLY BRANCHES,CHILLED WATER LOOP,Plant Supply,4
   Branch,1,CHILLED WATER LOOP SUPPLY INLET BRANCH,CHILLED WATER LOOP,Plant Supply,CHILLED WATER LOOP SUPPLY INLET NODE,CHILLED WATER LOOP PRIMARY PUMP OUTLET WATER NODE
   Branch,2,CHILLED WATER LOOP SUPPLY BRANCH 1,CHILLED WATER LOOP,Plant Supply,90.1-2013 WATERCOOLED  ROTARY SCREW CHILLER 0 SUPPLY INLET WATER NODE,90.1-2013 WATERCOOLED  ROTARY SCREW CHILLER 0 SUPPLY OUTLET WATER NODE
   Branch,3,CHILLED WATER LOOP SUPPLY BRANCH 2,CHILLED WATER LOOP,Plant Supply,CHILLED WATER LOOP CHILLER BYPASS INLET WATER NODE,CHILLED WATER LOOP CHILLER BYPASS OUTLET WATER NODE
   Branch,4,CHILLED WATER LOOP SUPPLY OUTLET BRANCH,CHILLED WATER LOOP,Plant Supply,CHILLED WATER LOOP SUPPLY OUTLET INLET WATER NODE,CHILLED WATER LOOP SUPPLY OUTLET NODE
 Branch List,8,CHILLED WATER LOOP DEMAND BRANCHES,CHILLED WATER LOOP,Plant Demand,10
   Branch,1,CHILLED WATER LOOP DEMAND INLET BRANCH,CHILLED WATER LOOP,Plant Demand,CHILLED WATER LOOP DEMAND INLET NODE,CHILLED WATER LOOP SECONDARY PUMP OUTLET WATER NODE
   Branch,2,CHILLED WATER LOOP DEMAND BRANCH 1,CHILLED WATER LOOP,Plant Demand,CHILLED WATER LOOP COIL BYPASS INLET WATER NODE,CHILLED WATER LOOP COIL BYPASS OUTLET WATER NODE
   Branch,3,CHILLED WATER LOOP DEMAND BRANCH 2,CHILLED WATER LOOP,Plant Demand,1 ZONE VAV CLG COIL INLET WATER NODE,1 ZONE VAV CLG COIL OUTLET WATER NODE
   Branch,4,CHILLED WATER LOOP DEMAND BRANCH 3,CHILLED WATER LOOP,Plant Demand,1 ZONE VAV 1 CLG COIL INLET WATER NODE,1 ZONE VAV 1 CLG COIL OUTLET WATER NODE
   Branch,5,CHILLED WATER LOOP DEMAND BRANCH 4,CHILLED WATER LOOP,Plant Demand,1 ZONE VAV 2 CLG COIL INLET WATER NODE,1 ZONE VAV 2 CLG COIL OUTLET WATER NODE
   Branch,6,CHILLED WATER LOOP DEMAND BRANCH 5,CHILLED WATER LOOP,Plant Demand,1 ZONE VAV 3 CLG COIL INLET WATER NODE,1 ZONE VAV 3 CLG COIL OUTLET WATER NODE
   Branch,7,CHILLED WATER LOOP DEMAND BRANCH 6,CHILLED WATER LOOP,Plant Demand,1 ZONE VAV 4 CLG COIL INLET WATER NODE,1 ZONE VAV 4 CLG COIL OUTLET WATER NODE
   Branch,8,CHILLED WATER LOOP DEMAND BRANCH 7,CHILLED WATER LOOP,Plant Demand,1 ZONE VAV 5 CLG COIL INLET WATER NODE,1 ZONE VAV 5 CLG COIL OUTLET WATER NODE
   Branch,9,CHILLED WATER LOOP DEMAND BYPASS BRANCH,CHILLED WATER LOOP,Plant Demand,CHILLED WATER LOOP DEMAND BYPASS PIPE INLET NODE,CHILLED WATER LOOP DEMAND BYPASS PIPE OUTLET NODE
   Branch,10,CHILLED WATER LOOP DEMAND OUTLET BRANCH,CHILLED WATER LOOP,Plant Demand,CHILLED WATER LOOP DEMAND OUTLET INLET WATER NODE,CHILLED WATER LOOP DEMAND OUTLET NODE
 Branch List,9,CONDENSER WATER LOOP SUPPLY BRANCHES,CONDENSER WATER LOOP,Plant Supply,4
   Branch,1,CONDENSER WATER LOOP SUPPLY INLET BRANCH,CONDENSER WATER LOOP,Plant Supply,CONDENSER WATER LOOP SUPPLY INLET NODE,CONDENSER WATER LOOP CONSTANT PUMP OUTLET WATER NODE
   Branch,2,CONDENSER WATER LOOP SUPPLY BRANCH 1,CONDENSER WATER LOOP,Plant Supply,PROPELLER OR AXIAL VARIABLE SPEED FAN OPEN COOLING TOWER INLET WATER NODE,PROPELLER OR AXIAL VARIABLE SPEED FAN OPEN COOLING TOWER OUTLET WATER NODE
   Branch,3,CONDENSER WATER LOOP SUPPLY BRANCH 2,CONDENSER WATER LOOP,Plant Supply,CONDENSER WATER LOOP COOLING TOWER BYPASS INLET WATER NODE,CONDENSER WATER LOOP COOLING TOWER BYPASS OUTLET WATER NODE
   Branch,4,CONDENSER WATER LOOP SUPPLY OUTLET BRANCH,CONDENSER WATER LOOP,Plant Supply,CONDENSER WATER LOOP SUPPLY OUTLET INLET WATER NODE,CONDENSER WATER LOOP SUPPLY OUTLET NODE
 Branch List,10,CONDENSER WATER LOOP DEMAND BRANCHES,CONDENSER WATER LOOP,Plant Demand,5
   Branch,1,CONDENSER WATER LOOP DEMAND INLET BRANCH,CONDENSER WATER LOOP,Plant Demand,CONDENSER WATER LOOP DEMAND INLET NODE,CONDENSER WATER LOOP DEMAND INLET OUTLET WATER NODE
   Branch,2,CONDENSER WATER LOOP DEMAND BRANCH 1,CONDENSER WATER LOOP,Plant Demand,CONDENSER WATER LOOP CHILLER BYPASS INLET WATER NODE,CONDENSER WATER LOOP CHILLER BYPASS OUTLET WATER NODE
   Branch,3,CONDENSER WATER LOOP DEMAND BRANCH 2,CONDENSER WATER LOOP,Plant Demand,90.1-2013 WATERCOOLED  ROTARY SCREW CHILLER 0 DEMAND INLET WATER NODE,90.1-2013 WATERCOOLED  ROTARY SCREW CHILLER 0 DEMAND OUTLET WATER NODE
   Branch,4,CONDENSER WATER LOOP DEMAND BYPASS BRANCH,CONDENSER WATER LOOP,Plant Demand,CONDENSER WATER LOOP DEMAND BYPASS PIPE INLET NODE,CONDENSER WATER LOOP DEMAND BYPASS PIPE OUTLET NODE
   Branch,5,CONDENSER WATER LOOP DEMAND OUTLET BRANCH,CONDENSER WATER LOOP,Plant Demand,CONDENSER WATER LOOP DEMAND OUTLET INLET WATER NODE,CONDENSER WATER LOOP DEMAND OUTLET NODE
 Branch List,11,FULLSERVICERESTAURANT KITCHEN - 90.1-2013 SERVICE WATER BOOSTER LOOP SUPPLY BRANCHES,FULLSERVICERESTAURANT KITCHEN - 90.1-2013 SERVICE WATER BOOSTER LOOP,Plant Supply,4
   Branch,1,FULLSERVICERESTAURANT KITCHEN - 90.1-2013 SERVICE WATER BOOSTER LOOP SUPPLY INLET BRANCH,FULLSERVICERESTAURANT KITCHEN - 90.1-2013 SERVICE WATER BOOSTER LOOP,Plant Supply,FULLSERVICERESTAURANT KITCHEN - 90.1-2013 SERVICE WATER BOOSTER LOOP SUPPLY INLET NODE,BOOSTER WATER LOOP PUMP OUTLET WATER NODE
   Branch,2,FULLSERVICERESTAURANT KITCHEN - 90.1-2013 SERVICE WATER BOOSTER LOOP SUPPLY BRANCH 1,FULLSERVICERESTAURANT KITCHEN - 90.1-2013 SERVICE WATER BOOSTER LOOP,Plant Supply,6.0GAL ELECTRICITY BOOSTER WATER HEATER - 934KBTU/HR SUPPLY INLET WATER NODE,6.0GAL ELECTRICITY BOOSTER WATER HEATER - 934KBTU/HR SUPPLY OUTLET WATER NODE
   Branch,3,FULLSERVICERESTAURANT KITCHEN - 90.1-2013 SERVICE WATER BOOSTER LOOP SUPPLY BRANCH 2,FULLSERVICERESTAURANT KITCHEN - 90.1-2013 SERVICE WATER BOOSTER LOOP,Plant Supply,PIPE ADIABATIC 5 INLET WATER NODE,PIPE ADIABATIC 5 OUTLET WATER NODE
   Branch,4,FULLSERVICERESTAURANT KITCHEN - 90.1-2013 SERVICE WATER BOOSTER LOOP SUPPLY OUTLET BRANCH,FULLSERVICERESTAURANT KITCHEN - 90.1-2013 SERVICE WATER BOOSTER LOOP,Plant Supply,PIPE ADIABATIC 7 INLET WATER NODE,FULLSERVICERESTAURANT KITCHEN - 90.1-2013 SERVICE WATER BOOSTER LOOP SUPPLY OUTLET NODE
 Branch List,12,FULLSERVICERESTAURANT KITCHEN - 90.1-2013 SERVICE WATER BOOSTER LOOP DEMAND BRANCHES,FULLSERVICERESTAURANT KITCHEN - 90.1-2013 SERVICE WATER BOOSTER LOOP,Plant Demand,5
   Branch,1,FULLSERVICERESTAURANT KITCHEN - 90.1-2013 SERVICE WATER BOOSTER LOOP DEMAND INLET BRANCH,FULLSERVICERESTAURANT KITCHEN - 90.1-2013 SERVICE WATER BOOSTER LOOP,Plant Demand,FULLSERVICERESTAURANT KITCHEN - 90.1-2013 SERVICE WATER BOOSTER LOOP DEMAND INLET NODE,PIPE ADIABATIC 8 OUTLET WATER NODE
   Branch,2,FULLSERVICERESTAURANT KITCHEN - 90.1-2013 SERVICE WATER BOOSTER LOOP DEMAND BRANCH 1,FULLSERVICERESTAURANT KITCHEN - 90.1-2013 SERVICE WATER BOOSTER LOOP,Plant Demand,PIPE ADIABATIC 6 INLET WATER NODE,PIPE ADIABATIC 6 OUTLET WATER NODE
   Branch,3,FULLSERVICERESTAURANT KITCHEN - 90.1-2013 SERVICE WATER BOOSTER LOOP DEMAND BRANCH 2,FULLSERVICERESTAURANT KITCHEN - 90.1-2013 SERVICE WATER BOOSTER LOOP,Plant Demand,BOOSTER FULLSERVICERESTAURANT KITCHEN - 90.1-2013 WUC 77.25GPM AT 180F INLET WATER NODE,BOOSTER FULLSERVICERESTAURANT KITCHEN - 90.1-2013 WUC 77.25GPM AT 180F OUTLET WATER NODE
   Branch,4,FULLSERVICERESTAURANT KITCHEN - 90.1-2013 SERVICE WATER BOOSTER LOOP DEMAND BYPASS BRANCH,FULLSERVICERESTAURANT KITCHEN - 90.1-2013 SERVICE WATER BOOSTER LOOP,Plant Demand,FULLSERVICERESTAURANT KITCHEN - 90.1-2013 SERVICE WATER BOOSTER LOOP DEMAND BYPASS PIPE INLET NODE,FULLSERVICERESTAURANT KITCHEN - 90.1-2013 SERVICE WATER BOOSTER LOOP DEMAND BYPASS PIPE OUTLET NODE
   Branch,5,FULLSERVICERESTAURANT KITCHEN - 90.1-2013 SERVICE WATER BOOSTER LOOP DEMAND OUTLET BRANCH,FULLSERVICERESTAURANT KITCHEN - 90.1-2013 SERVICE WATER BOOSTER LOOP,Plant Demand,PIPE ADIABATIC 9 INLET WATER NODE,FULLSERVICERESTAURANT KITCHEN - 90.1-2013 SERVICE WATER BOOSTER LOOP DEMAND OUTLET NODE
 Branch List,13,FULLSERVICERESTAURANT KITCHEN - 90.1-2013 SERVICE WATER LOOP SUPPLY BRANCHES,FULLSERVICERESTAURANT KITCHEN - 90.1-2013 SERVICE WATER LOOP,Plant Supply,4
   Branch,1,FULLSERVICERESTAURANT KITCHEN - 90.1-2013 SERVICE WATER LOOP SUPPLY INLET BRANCH,FULLSERVICERESTAURANT KITCHEN - 90.1-2013 SERVICE WATER LOOP,Plant Supply,FULLSERVICERESTAURANT KITCHEN - 90.1-2013 SERVICE WATER LOOP SUPPLY INLET NODE,FULLSERVICERESTAURANT KITCHEN - 90.1-2013 SERVICE WATER LOOP WATER MAINS PRESSURE DRIVEN OUTLET WATER NODE
   Branch,2,FULLSERVICERESTAURANT KITCHEN - 90.1-2013 SERVICE WATER LOOP SUPPLY BRANCH 1,FULLSERVICERESTAURANT KITCHEN - 90.1-2013 SERVICE WATER LOOP,Plant Supply,4867GAL NATURALGAS WATER HEATER - 4867KBTU/HR SUPPLY INLET WATER NODE,4867GAL NATURALGAS WATER HEATER - 4867KBTU/HR SUPPLY OUTLET WATER NODE
   Branch,3,FULLSERVICERESTAURANT KITCHEN - 90.1-2013 SERVICE WATER LOOP SUPPLY BRANCH 2,FULLSERVICERESTAURANT KITCHEN - 90.1-2013 SERVICE WATER LOOP,Plant Supply,PIPE ADIABATIC 1 INLET WATER NODE,PIPE ADIABATIC 1 OUTLET WATER NODE
   Branch,4,FULLSERVICERESTAURANT KITCHEN - 90.1-2013 SERVICE WATER LOOP SUPPLY OUTLET BRANCH,FULLSERVICERESTAURANT KITCHEN - 90.1-2013 SERVICE WATER LOOP,Plant Supply,PIPE ADIABATIC 3 INLET WATER NODE,FULLSERVICERESTAURANT KITCHEN - 90.1-2013 SERVICE WATER LOOP SUPPLY OUTLET NODE
 Branch List,14,FULLSERVICERESTAURANT KITCHEN - 90.1-2013 SERVICE WATER LOOP DEMAND BRANCHES,FULLSERVICERESTAURANT KITCHEN - 90.1-2013 SERVICE WATER LOOP,Plant Demand,6
   Branch,1,FULLSERVICERESTAURANT KITCHEN - 90.1-2013 SERVICE WATER LOOP DEMAND INLET BRANCH,FULLSERVICERESTAURANT KITCHEN - 90.1-2013 SERVICE WATER LOOP,Plant Demand,FULLSERVICERESTAURANT KITCHEN - 90.1-2013 SERVICE WATER LOOP DEMAND INLET NODE,FULLSERVICERESTAURANT KITCHEN - 90.1-2013 SERVICE WATER LOOP PIPE 20.0FT OUTLET WATER NODE
   Branch,2,FULLSERVICERESTAURANT KITCHEN - 90.1-2013 SERVICE WATER LOOP DEMAND BRANCH 1,FULLSERVICERESTAURANT KITCHEN - 90.1-2013 SERVICE WATER LOOP,Plant Demand,PIPE ADIABATIC 2 INLET WATER NODE,PIPE ADIABATIC 2 OUTLET WATER NODE
   Branch,3,FULLSERVICERESTAURANT KITCHEN - 90.1-2013 SERVICE WATER LOOP DEMAND BRANCH 2,FULLSERVICERESTAURANT KITCHEN - 90.1-2013 SERVICE WATER LOOP,Plant Demand,FULLSERVICERESTAURANT KITCHEN - 90.1-2013 WUC 51.5GPM AT 140F INLET WATER NODE,FULLSERVICERESTAURANT KITCHEN - 90.1-2013 WUC 51.5GPM AT 140F OUTLET WATER NODE
   Branch,4,FULLSERVICERESTAURANT KITCHEN - 90.1-2013 SERVICE WATER LOOP DEMAND BRANCH 3,FULLSERVICERESTAURANT KITCHEN - 90.1-2013 SERVICE WATER LOOP,Plant Demand,HX FOR BOOSTER WATER HEATING DEMAND INLET WATER NODE,MAINS WATER MAKEUP FOR SWH BOOSTER OUTLET WATER NODE
   Branch,5,FULLSERVICERESTAURANT KITCHEN - 90.1-2013 SERVICE WATER LOOP DEMAND BYPASS BRANCH,FULLSERVICERESTAURANT KITCHEN - 90.1-2013 SERVICE WATER LOOP,Plant Demand,FULLSERVICERESTAURANT KITCHEN - 90.1-2013 SERVICE WATER LOOP DEMAND BYPASS PIPE INLET NODE,FULLSERVICERESTAURANT KITCHEN - 90.1-2013 SERVICE WATER LOOP DEMAND BYPASS PIPE OUTLET NODE
   Branch,6,FULLSERVICERESTAURANT KITCHEN - 90.1-2013 SERVICE WATER LOOP DEMAND OUTLET BRANCH,FULLSERVICERESTAURANT KITCHEN - 90.1-2013 SERVICE WATER LOOP,Plant Demand,PIPE ADIABATIC 4 INLET WATER NODE,FULLSERVICERESTAURANT KITCHEN - 90.1-2013 SERVICE WATER LOOP DEMAND OUTLET NODE
 Branch List,15,HOT WATER LOOP SUPPLY BRANCHES,HOT WATER LOOP,Plant Supply,4
   Branch,1,HOT WATER LOOP SUPPLY INLET BRANCH,HOT WATER LOOP,Plant Supply,HOT WATER LOOP SUPPLY INLET NODE,HOT WATER LOOP PUMP OUTLET WATER NODE
   Branch,2,HOT WATER LOOP SUPPLY BRANCH 1,HOT WATER LOOP,Plant Supply,BOILER INLET WATER NODE,BOILER OUTLET WATER NODE
   Branch,3,HOT WATER LOOP SUPPLY BRANCH 2,HOT WATER LOOP,Plant Supply,HOT WATER LOOP SUPPLY EQUIPMENT BYPASS INLET WATER NODE,HOT WATER LOOP SUPPLY EQUIPMENT BYPASS OUTLET WATER NODE
   Branch,4,HOT WATER LOOP SUPPLY OUTLET BRANCH,HOT WATER LOOP,Plant Supply,HOT WATER LOOP SUPPLY OUTLET INLET WATER NODE,HOT WATER LOOP SUPPLY OUTLET NODE
 Branch List,16,HOT WATER LOOP DEMAND BRANCHES,HOT WATER LOOP,Plant Demand,18
   Branch,1,HOT WATER LOOP DEMAND INLET BRANCH,HOT WATER LOOP,Plant Demand,HOT WATER LOOP DEMAND INLET NODE,HOT WATER LOOP DEMAND INLET OUTLET WATER NODE
   Branch,2,HOT WATER LOOP DEMAND BRANCH 1,HOT WATER LOOP,Plant Demand,HOT WATER LOOP COIL BYPASS INLET WATER NODE,HOT WATER LOOP COIL BYPASS OUTLET WATER NODE
   Branch,3,HOT WATER LOOP DEMAND BRANCH 2,HOT WATER LOOP,Plant Demand,1 ZONE VAV MAIN HTG COIL INLET WATER NODE,1 ZONE VAV MAIN HTG COIL OUTLET WATER NODE
   Branch,4,HOT WATER LOOP DEMAND BRANCH 3,HOT WATER LOOP,Plant Demand,BUILDING STORY 2 THERMALZONE REHEAT COIL INLET WATER NODE,BUILDING STORY 2 THERMALZONE REHEAT COIL OUTLET WATER NODE
   Branch,5,HOT WATER LOOP DEMAND BRANCH 4,HOT WATER LOOP,Plant Demand,1 ZONE VAV 1 MAIN HTG COIL INLET WATER NODE,1 ZONE VAV 1 MAIN HTG COIL OUTLET WATER NODE
   Branch,6,HOT WATER LOOP DEMAND BRANCH 5,HOT WATER LOOP,Plant Demand,BUILDING STORY 8 THERMALZONE REHEAT COIL INLET WATER NODE,BUILDING STORY 8 THERMALZONE REHEAT COIL OUTLET WATER NODE
   Branch,7,HOT WATER LOOP DEMAND BRANCH 6,HOT WATER LOOP,Plant Demand,HOT WATER LOOP WATER HTG COIL INLET WATER NODE,HOT WATER LOOP WATER HTG COIL OUTLET WATER NODE
   Branch,8,HOT WATER LOOP DEMAND BRANCH 7,HOT WATER LOOP,Plant Demand,HOT WATER LOOP WATER HTG COIL 1 INLET WATER NODE,HOT WATER LOOP WATER HTG COIL 1 OUTLET WATER NODE
   Branch,9,HOT WATER LOOP DEMAND BRANCH 8,HOT WATER LOOP,Plant Demand,1 ZONE VAV 2 MAIN HTG COIL INLET WATER NODE,1 ZONE VAV 2 MAIN HTG COIL OUTLET WATER NODE
   Branch,10,HOT WATER LOOP DEMAND BRANCH 9,HOT WATER LOOP,Plant Demand,BUILDING STORY 1 THERMALZONE REHEAT COIL INLET WATER NODE,BUILDING STORY 1 THERMALZONE REHEAT COIL OUTLET WATER NODE
   Branch,11,HOT WATER LOOP DEMAND BRANCH 10,HOT WATER LOOP,Plant Demand,1 ZONE VAV 3 MAIN HTG COIL INLET WATER NODE,1 ZONE VAV 3 MAIN HTG COIL OUTLET WATER NODE
   Branch,12,HOT WATER LOOP DEMAND BRANCH 11,HOT WATER LOOP,Plant Demand,BUILDING STORY 3 THERMALZONE REHEAT COIL INLET WATER NODE,BUILDING STORY 3 THERMALZONE REHEAT COIL OUTLET WATER NODE
   Branch,13,HOT WATER LOOP DEMAND BRANCH 12,HOT WATER LOOP,Plant Demand,1 ZONE VAV 4 MAIN HTG COIL INLET WATER NODE,1 ZONE VAV 4 MAIN HTG COIL OUTLET WATER NODE
   Branch,14,HOT WATER LOOP DEMAND BRANCH 13,HOT WATER LOOP,Plant Demand,BUILDING STORY 5 THERMALZONE REHEAT COIL INLET WATER NODE,BUILDING STORY 5 THERMALZONE REHEAT COIL OUTLET WATER NODE
   Branch,15,HOT WATER LOOP DEMAND BRANCH 14,HOT WATER LOOP,Plant Demand,1 ZONE VAV 5 MAIN HTG COIL INLET WATER NODE,1 ZONE VAV 5 MAIN HTG COIL OUTLET WATER NODE
   Branch,16,HOT WATER LOOP DEMAND BRANCH 15,HOT WATER LOOP,Plant Demand,BUILDING STORY 6 THERMALZONE REHEAT COIL INLET WATER NODE,BUILDING STORY 6 THERMALZONE REHEAT COIL OUTLET WATER NODE
   Branch,17,HOT WATER LOOP DEMAND BYPASS BRANCH,HOT WATER LOOP,Plant Demand,HOT WATER LOOP DEMAND BYPASS PIPE INLET NODE,HOT WATER LOOP DEMAND BYPASS PIPE OUTLET NODE
   Branch,18,HOT WATER LOOP DEMAND OUTLET BRANCH,HOT WATER LOOP,Plant Demand,HOT WATER LOOP DEMAND OUTLET INLET WATER NODE,HOT WATER LOOP DEMAND OUTLET NODE
 Branch List,17,LARGEHOTEL KITCHEN - 90.1-2013 SERVICE WATER BOOSTER LOOP SUPPLY BRANCHES,LARGEHOTEL KITCHEN - 90.1-2013 SERVICE WATER BOOSTER LOOP,Plant Supply,4
   Branch,1,LARGEHOTEL KITCHEN - 90.1-2013 SERVICE WATER BOOSTER LOOP SUPPLY INLET BRANCH,LARGEHOTEL KITCHEN - 90.1-2013 SERVICE WATER BOOSTER LOOP,Plant Supply,LARGEHOTEL KITCHEN - 90.1-2013 SERVICE WATER BOOSTER LOOP SUPPLY INLET NODE,BOOSTER WATER LOOP PUMP 1 OUTLET WATER NODE
   Branch,2,LARGEHOTEL KITCHEN - 90.1-2013 SERVICE WATER BOOSTER LOOP SUPPLY BRANCH 1,LARGEHOTEL KITCHEN - 90.1-2013 SERVICE WATER BOOSTER LOOP,Plant Supply,6.0GAL ELECTRICITY BOOSTER WATER HEATER - 71KBTU/HR SUPPLY INLET WATER NODE,6.0GAL ELECTRICITY BOOSTER WATER HEATER - 71KBTU/HR SUPPLY OUTLET WATER NODE
   Branch,3,LARGEHOTEL KITCHEN - 90.1-2013 SERVICE WATER BOOSTER LOOP SUPPLY BRANCH 2,LARGEHOTEL KITCHEN - 90.1-2013 SERVICE WATER BOOSTER LOOP,Plant Supply,PIPE ADIABATIC 14 INLET WATER NODE,PIPE ADIABATIC 14 OUTLET WATER NODE
   Branch,4,LARGEHOTEL KITCHEN - 90.1-2013 SERVICE WATER BOOSTER LOOP SUPPLY OUTLET BRANCH,LARGEHOTEL KITCHEN - 90.1-2013 SERVICE WATER BOOSTER LOOP,Plant Supply,PIPE ADIABATIC 16 INLET WATER NODE,LARGEHOTEL KITCHEN - 90.1-2013 SERVICE WATER BOOSTER LOOP SUPPLY OUTLET NODE
 Branch List,18,LARGEHOTEL KITCHEN - 90.1-2013 SERVICE WATER BOOSTER LOOP DEMAND BRANCHES,LARGEHOTEL KITCHEN - 90.1-2013 SERVICE WATER BOOSTER LOOP,Plant Demand,5
   Branch,1,LARGEHOTEL KITCHEN - 90.1-2013 SERVICE WATER BOOSTER LOOP DEMAND INLET BRANCH,LARGEHOTEL KITCHEN - 90.1-2013 SERVICE WATER BOOSTER LOOP,Plant Demand,LARGEHOTEL KITCHEN - 90.1-2013 SERVICE WATER BOOSTER LOOP DEMAND INLET NODE,PIPE ADIABATIC 17 OUTLET WATER NODE
   Branch,2,LARGEHOTEL KITCHEN - 90.1-2013 SERVICE WATER BOOSTER LOOP DEMAND BRANCH 1,LARGEHOTEL KITCHEN - 90.1-2013 SERVICE WATER BOOSTER LOOP,Plant Demand,PIPE ADIABATIC 15 INLET WATER NODE,PIPE ADIABATIC 15 OUTLET WATER NODE
   Branch,3,LARGEHOTEL KITCHEN - 90.1-2013 SERVICE WATER BOOSTER LOOP DEMAND BRANCH 2,LARGEHOTEL KITCHEN - 90.1-2013 SERVICE WATER BOOSTER LOOP,Plant Demand,BOOSTER LARGEHOTEL KITCHEN - 90.1-2013 WUC 5.9GPM AT 180F INLET WATER NODE,BOOSTER LARGEHOTEL KITCHEN - 90.1-2013 WUC 5.9GPM AT 180F OUTLET WATER NODE
   Branch,4,LARGEHOTEL KITCHEN - 90.1-2013 SERVICE WATER BOOSTER LOOP DEMAND BYPASS BRANCH,LARGEHOTEL KITCHEN - 90.1-2013 SERVICE WATER BOOSTER LOOP,Plant Demand,LARGEHOTEL KITCHEN - 90.1-2013 SERVICE WATER BOOSTER LOOP DEMAND BYPASS PIPE INLET NODE,LARGEHOTEL KITCHEN - 90.1-2013 SERVICE WATER BOOSTER LOOP DEMAND BYPASS PIPE OUTLET NODE
   Branch,5,LARGEHOTEL KITCHEN - 90.1-2013 SERVICE WATER BOOSTER LOOP DEMAND OUTLET BRANCH,LARGEHOTEL KITCHEN - 90.1-2013 SERVICE WATER BOOSTER LOOP,Plant Demand,PIPE ADIABATIC 18 INLET WATER NODE,LARGEHOTEL KITCHEN - 90.1-2013 SERVICE WATER BOOSTER LOOP DEMAND OUTLET NODE
 Branch List,19,LARGEHOTEL KITCHEN - 90.1-2013 SERVICE WATER LOOP SUPPLY BRANCHES,LARGEHOTEL KITCHEN - 90.1-2013 SERVICE WATER LOOP,Plant Supply,4
   Branch,1,LARGEHOTEL KITCHEN - 90.1-2013 SERVICE WATER LOOP SUPPLY INLET BRANCH,LARGEHOTEL KITCHEN - 90.1-2013 SERVICE WATER LOOP,Plant Supply,LARGEHOTEL KITCHEN - 90.1-2013 SERVICE WATER LOOP SUPPLY INLET NODE,LARGEHOTEL KITCHEN - 90.1-2013 SERVICE WATER LOOP WATER MAINS PRESSURE DRIVEN OUTLET WATER NODE
   Branch,2,LARGEHOTEL KITCHEN - 90.1-2013 SERVICE WATER LOOP SUPPLY BRANCH 1,LARGEHOTEL KITCHEN - 90.1-2013 SERVICE WATER LOOP,Plant Supply,372GAL ELECTRICITY WATER HEATER - 372KBTU/HR SUPPLY INLET WATER NODE,372GAL ELECTRICITY WATER HEATER - 372KBTU/HR SUPPLY OUTLET WATER NODE
   Branch,3,LARGEHOTEL KITCHEN - 90.1-2013 SERVICE WATER LOOP SUPPLY BRANCH 2,LARGEHOTEL KITCHEN - 90.1-2013 SERVICE WATER LOOP,Plant Supply,PIPE ADIABATIC 10 INLET WATER NODE,PIPE ADIABATIC 10 OUTLET WATER NODE
   Branch,4,LARGEHOTEL KITCHEN - 90.1-2013 SERVICE WATER LOOP SUPPLY OUTLET BRANCH,LARGEHOTEL KITCHEN - 90.1-2013 SERVICE WATER LOOP,Plant Supply,PIPE ADIABATIC 12 INLET WATER NODE,LARGEHOTEL KITCHEN - 90.1-2013 SERVICE WATER LOOP SUPPLY OUTLET NODE
 Branch List,20,LARGEHOTEL KITCHEN - 90.1-2013 SERVICE WATER LOOP DEMAND BRANCHES,LARGEHOTEL KITCHEN - 90.1-2013 SERVICE WATER LOOP,Plant Demand,6
   Branch,1,LARGEHOTEL KITCHEN - 90.1-2013 SERVICE WATER LOOP DEMAND INLET BRANCH,LARGEHOTEL KITCHEN - 90.1-2013 SERVICE WATER LOOP,Plant Demand,LARGEHOTEL KITCHEN - 90.1-2013 SERVICE WATER LOOP DEMAND INLET NODE,LARGEHOTEL KITCHEN - 90.1-2013 SERVICE WATER LOOP PIPE 20.0FT OUTLET WATER NODE
   Branch,2,LARGEHOTEL KITCHEN - 90.1-2013 SERVICE WATER LOOP DEMAND BRANCH 1,LARGEHOTEL KITCHEN - 90.1-2013 SERVICE WATER LOOP,Plant Demand,PIPE ADIABATIC 11 INLET WATER NODE,PIPE ADIABATIC 11 OUTLET WATER NODE
   Branch,3,LARGEHOTEL KITCHEN - 90.1-2013 SERVICE WATER LOOP DEMAND BRANCH 2,LARGEHOTEL KITCHEN - 90.1-2013 SERVICE WATER LOOP,Plant Demand,LARGEHOTEL KITCHEN - 90.1-2013 WUC 3.93GPM AT 140F INLET WATER NODE,LARGEHOTEL KITCHEN - 90.1-2013 WUC 3.93GPM AT 140F OUTLET WATER NODE
   Branch,4,LARGEHOTEL KITCHEN - 90.1-2013 SERVICE WATER LOOP DEMAND BRANCH 3,LARGEHOTEL KITCHEN - 90.1-2013 SERVICE WATER LOOP,Plant Demand,HX FOR BOOSTER WATER HEATING 1 DEMAND INLET WATER NODE,MAINS WATER MAKEUP FOR SWH BOOSTER 1 OUTLET WATER NODE
   Branch,5,LARGEHOTEL KITCHEN - 90.1-2013 SERVICE WATER LOOP DEMAND BYPASS BRANCH,LARGEHOTEL KITCHEN - 90.1-2013 SERVICE WATER LOOP,Plant Demand,LARGEHOTEL KITCHEN - 90.1-2013 SERVICE WATER LOOP DEMAND BYPASS PIPE INLET NODE,LARGEHOTEL KITCHEN - 90.1-2013 SERVICE WATER LOOP DEMAND BYPASS PIPE OUTLET NODE
   Branch,6,LARGEHOTEL KITCHEN - 90.1-2013 SERVICE WATER LOOP DEMAND OUTLET BRANCH,LARGEHOTEL KITCHEN - 90.1-2013 SERVICE WATER LOOP,Plant Demand,PIPE ADIABATIC 13 INLET WATER NODE,LARGEHOTEL KITCHEN - 90.1-2013 SERVICE WATER LOOP DEMAND OUTLET NODE
 Branch List,21,LARGEHOTEL LAUNDRY - 90.1-2013 SERVICE WATER LOOP SUPPLY BRANCHES,LARGEHOTEL LAUNDRY - 90.1-2013 SERVICE WATER LOOP,Plant Supply,4
   Branch,1,LARGEHOTEL LAUNDRY - 90.1-2013 SERVICE WATER LOOP SUPPLY INLET BRANCH,LARGEHOTEL LAUNDRY - 90.1-2013 SERVICE WATER LOOP,Plant Supply,LARGEHOTEL LAUNDRY - 90.1-2013 SERVICE WATER LOOP SUPPLY INLET NODE,LARGEHOTEL LAUNDRY - 90.1-2013 SERVICE WATER LOOP WATER MAINS PRESSURE DRIVEN OUTLET WATER NODE
   Branch,2,LARGEHOTEL LAUNDRY - 90.1-2013 SERVICE WATER LOOP SUPPLY BRANCH 1,LARGEHOTEL LAUNDRY - 90.1-2013 SERVICE WATER LOOP,Plant Supply,732GAL ELECTRICITY WATER HEATER - 732KBTU/HR SUPPLY INLET WATER NODE,732GAL ELECTRICITY WATER HEATER - 732KBTU/HR SUPPLY OUTLET WATER NODE
   Branch,3,LARGEHOTEL LAUNDRY - 90.1-2013 SERVICE WATER LOOP SUPPLY BRANCH 2,LARGEHOTEL LAUNDRY - 90.1-2013 SERVICE WATER LOOP,Plant Supply,PIPE ADIABATIC 19 INLET WATER NODE,PIPE ADIABATIC 19 OUTLET WATER NODE
   Branch,4,LARGEHOTEL LAUNDRY - 90.1-2013 SERVICE WATER LOOP SUPPLY OUTLET BRANCH,LARGEHOTEL LAUNDRY - 90.1-2013 SERVICE WATER LOOP,Plant Supply,PIPE ADIABATIC 21 INLET WATER NODE,LARGEHOTEL LAUNDRY - 90.1-2013 SERVICE WATER LOOP SUPPLY OUTLET NODE
 Branch List,22,LARGEHOTEL LAUNDRY - 90.1-2013 SERVICE WATER LOOP DEMAND BRANCHES,LARGEHOTEL LAUNDRY - 90.1-2013 SERVICE WATER LOOP,Plant Demand,5
   Branch,1,LARGEHOTEL LAUNDRY - 90.1-2013 SERVICE WATER LOOP DEMAND INLET BRANCH,LARGEHOTEL LAUNDRY - 90.1-2013 SERVICE WATER LOOP,Plant Demand,LARGEHOTEL LAUNDRY - 90.1-2013 SERVICE WATER LOOP DEMAND INLET NODE,LARGEHOTEL LAUNDRY - 90.1-2013 SERVICE WATER LOOP PIPE 20.0FT OUTLET WATER NODE
   Branch,2,LARGEHOTEL LAUNDRY - 90.1-2013 SERVICE WATER LOOP DEMAND BRANCH 1,LARGEHOTEL LAUNDRY - 90.1-2013 SERVICE WATER LOOP,Plant Demand,PIPE ADIABATIC 20 INLET WATER NODE,PIPE ADIABATIC 20 OUTLET WATER NODE
   Branch,3,LARGEHOTEL LAUNDRY - 90.1-2013 SERVICE WATER LOOP DEMAND BRANCH 2,LARGEHOTEL LAUNDRY - 90.1-2013 SERVICE WATER LOOP,Plant Demand,LARGEHOTEL LAUNDRY - 90.1-2013 WUC 11.62GPM AT 140F INLET WATER NODE,LARGEHOTEL LAUNDRY - 90.1-2013 WUC 11.62GPM AT 140F OUTLET WATER NODE
   Branch,4,LARGEHOTEL LAUNDRY - 90.1-2013 SERVICE WATER LOOP DEMAND BYPASS BRANCH,LARGEHOTEL LAUNDRY - 90.1-2013 SERVICE WATER LOOP,Plant Demand,LARGEHOTEL LAUNDRY - 90.1-2013 SERVICE WATER LOOP DEMAND BYPASS PIPE INLET NODE,LARGEHOTEL LAUNDRY - 90.1-2013 SERVICE WATER LOOP DEMAND BYPASS PIPE OUTLET NODE
   Branch,5,LARGEHOTEL LAUNDRY - 90.1-2013 SERVICE WATER LOOP DEMAND OUTLET BRANCH,LARGEHOTEL LAUNDRY - 90.1-2013 SERVICE WATER LOOP,Plant Demand,PIPE ADIABATIC 22 INLET WATER NODE,LARGEHOTEL LAUNDRY - 90.1-2013 SERVICE WATER LOOP DEMAND OUTLET NODE
 Branch List,23,LARGEHOTEL SHARED SERVICE WATER LOOP SUPPLY BRANCHES,LARGEHOTEL SHARED SERVICE WATER LOOP,Plant Supply,4
   Branch,1,LARGEHOTEL SHARED SERVICE WATER LOOP SUPPLY INLET BRANCH,LARGEHOTEL SHARED SERVICE WATER LOOP,Plant Supply,LARGEHOTEL SHARED SERVICE WATER LOOP SUPPLY INLET NODE,LARGEHOTEL SHARED SERVICE WATER LOOP CIRCULATOR PUMP OUTLET WATER NODE
   Branch,2,LARGEHOTEL SHARED SERVICE WATER LOOP SUPPLY BRANCH 1,LARGEHOTEL SHARED SERVICE WATER LOOP,Plant Supply,555GAL ELECTRICITY WATER HEATER - 555KBTU/HR SUPPLY INLET WATER NODE,555GAL ELECTRICITY WATER HEATER - 555KBTU/HR SUPPLY OUTLET WATER NODE
   Branch,3,LARGEHOTEL SHARED SERVICE WATER LOOP SUPPLY BRANCH 2,LARGEHOTEL SHARED SERVICE WATER LOOP,Plant Supply,PIPE ADIABATIC 35 INLET WATER NODE,PIPE ADIABATIC 35 OUTLET WATER NODE
   Branch,4,LARGEHOTEL SHARED SERVICE WATER LOOP SUPPLY OUTLET BRANCH,LARGEHOTEL SHARED SERVICE WATER LOOP,Plant Supply,PIPE ADIABATIC 37 INLET WATER NODE,LARGEHOTEL SHARED SERVICE WATER LOOP SUPPLY OUTLET NODE
 Branch List,24,LARGEHOTEL SHARED SERVICE WATER LOOP DEMAND BRANCHES,LARGEHOTEL SHARED SERVICE WATER LOOP,Plant Demand,5
   Branch,1,LARGEHOTEL SHARED SERVICE WATER LOOP DEMAND INLET BRANCH,LARGEHOTEL SHARED SERVICE WATER LOOP,Plant Demand,LARGEHOTEL SHARED SERVICE WATER LOOP DEMAND INLET NODE,LARGEHOTEL SHARED SERVICE WATER LOOP PIPE 835.4948405086806FT OUTLET WATER NODE
   Branch,2,LARGEHOTEL SHARED SERVICE WATER LOOP DEMAND BRANCH 1,LARGEHOTEL SHARED SERVICE WATER LOOP,Plant Demand,PIPE ADIABATIC 36 INLET WATER NODE,PIPE ADIABATIC 36 OUTLET WATER NODE
   Branch,3,LARGEHOTEL SHARED SERVICE WATER LOOP DEMAND BRANCH 2,LARGEHOTEL SHARED SERVICE WATER LOOP,Plant Demand,LARGEHOTEL GUESTROOM - 90.1-2013 WUC 11.02GPM AT 140F INLET WATER NODE,LARGEHOTEL GUESTROOM - 90.1-2013 WUC 11.02GPM AT 140F OUTLET WATER NODE
   Branch,4,LARGEHOTEL SHARED SERVICE WATER LOOP DEMAND BYPASS BRANCH,LARGEHOTEL SHARED SERVICE WATER LOOP,Plant Demand,LARGEHOTEL SHARED SERVICE WATER LOOP DEMAND BYPASS PIPE INLET NODE,LARGEHOTEL SHARED SERVICE WATER LOOP DEMAND BYPASS PIPE OUTLET NODE
   Branch,5,LARGEHOTEL SHARED SERVICE WATER LOOP DEMAND OUTLET BRANCH,LARGEHOTEL SHARED SERVICE WATER LOOP,Plant Demand,PIPE ADIABATIC 38 INLET WATER NODE,LARGEHOTEL SHARED SERVICE WATER LOOP DEMAND OUTLET NODE
 Branch List,25,OFFICE SHARED SERVICE WATER LOOP SUPPLY BRANCHES,OFFICE SHARED SERVICE WATER LOOP,Plant Supply,4
   Branch,1,OFFICE SHARED SERVICE WATER LOOP SUPPLY INLET BRANCH,OFFICE SHARED SERVICE WATER LOOP,Plant Supply,OFFICE SHARED SERVICE WATER LOOP SUPPLY INLET NODE,OFFICE SHARED SERVICE WATER LOOP CIRCULATOR PUMP OUTLET WATER NODE
   Branch,2,OFFICE SHARED SERVICE WATER LOOP SUPPLY BRANCH 1,OFFICE SHARED SERVICE WATER LOOP,Plant Supply,109GAL ELECTRICITY WATER HEATER - 109KBTU/HR SUPPLY INLET WATER NODE,109GAL ELECTRICITY WATER HEATER - 109KBTU/HR SUPPLY OUTLET WATER NODE
   Branch,3,OFFICE SHARED SERVICE WATER LOOP SUPPLY BRANCH 2,OFFICE SHARED SERVICE WATER LOOP,Plant Supply,PIPE ADIABATIC 39 INLET WATER NODE,PIPE ADIABATIC 39 OUTLET WATER NODE
   Branch,4,OFFICE SHARED SERVICE WATER LOOP SUPPLY OUTLET BRANCH,OFFICE SHARED SERVICE WATER LOOP,Plant Supply,PIPE ADIABATIC 41 INLET WATER NODE,OFFICE SHARED SERVICE WATER LOOP SUPPLY OUTLET NODE
 Branch List,26,OFFICE SHARED SERVICE WATER LOOP DEMAND BRANCHES,OFFICE SHARED SERVICE WATER LOOP,Plant Demand,5
   Branch,1,OFFICE SHARED SERVICE WATER LOOP DEMAND INLET BRANCH,OFFICE SHARED SERVICE WATER LOOP,Plant Demand,OFFICE SHARED SERVICE WATER LOOP DEMAND INLET NODE,OFFICE SHARED SERVICE WATER LOOP PIPE 803.4948405086806FT OUTLET WATER NODE
   Branch,2,OFFICE SHARED SERVICE WATER LOOP DEMAND BRANCH 1,OFFICE SHARED SERVICE WATER LOOP,Plant Demand,PIPE ADIABATIC 40 INLET WATER NODE,PIPE ADIABATIC 40 OUTLET WATER NODE
   Branch,3,OFFICE SHARED SERVICE WATER LOOP DEMAND BRANCH 2,OFFICE SHARED SERVICE WATER LOOP,Plant Demand,OFFICE WHOLEBUILDING - MD OFFICE - 90.1-2013 WUC 3.04GPM AT 140F INLET WATER NODE,OFFICE WHOLEBUILDING - MD OFFICE - 90.1-2013 WUC 3.04GPM AT 140F OUTLET WATER NODE
   Branch,4,OFFICE SHARED SERVICE WATER LOOP DEMAND BYPASS BRANCH,OFFICE SHARED SERVICE WATER LOOP,Plant Demand,OFFICE SHARED SERVICE WATER LOOP DEMAND BYPASS PIPE INLET NODE,OFFICE SHARED SERVICE WATER LOOP DEMAND BYPASS PIPE OUTLET NODE
   Branch,5,OFFICE SHARED SERVICE WATER LOOP DEMAND OUTLET BRANCH,OFFICE SHARED SERVICE WATER LOOP,Plant Demand,PIPE ADIABATIC 42 INLET WATER NODE,OFFICE SHARED SERVICE WATER LOOP DEMAND OUTLET NODE
 Branch List,27,STRIPMALL STRIP MALL - TYPE 1 - 90.1-2013 SERVICE WATER LOOP SUPPLY BRANCHES,STRIPMALL STRIP MALL - TYPE 1 - 90.1-2013 SERVICE WATER LOOP,Plant Supply,4
   Branch,1,STRIPMALL STRIP MALL - TYPE 1 - 90.1-2013 SERVICE WATER LOOP SUPPLY INLET BRANCH,STRIPMALL STRIP MALL - TYPE 1 - 90.1-2013 SERVICE WATER LOOP,Plant Supply,STRIPMALL STRIP MALL - TYPE 1 - 90.1-2013 SERVICE WATER LOOP SUPPLY INLET NODE,STRIPMALL STRIP MALL - TYPE 1 - 90.1-2013 SERVICE WATER LOOP WATER MAINS PRESSURE DRIVEN OUTLET WATER NODE
   Branch,2,STRIPMALL STRIP MALL - TYPE 1 - 90.1-2013 SERVICE WATER LOOP SUPPLY BRANCH 1,STRIPMALL STRIP MALL - TYPE 1 - 90.1-2013 SERVICE WATER LOOP,Plant Supply,36X 50GAL ELECTRICITY WATER HEATER - 20KBTU/HR SUPPLY INLET WATER NODE,36X 50GAL ELECTRICITY WATER HEATER - 20KBTU/HR SUPPLY OUTLET WATER NODE
   Branch,3,STRIPMALL STRIP MALL - TYPE 1 - 90.1-2013 SERVICE WATER LOOP SUPPLY BRANCH 2,STRIPMALL STRIP MALL - TYPE 1 - 90.1-2013 SERVICE WATER LOOP,Plant Supply,PIPE ADIABATIC 23 INLET WATER NODE,PIPE ADIABATIC 23 OUTLET WATER NODE
   Branch,4,STRIPMALL STRIP MALL - TYPE 1 - 90.1-2013 SERVICE WATER LOOP SUPPLY OUTLET BRANCH,STRIPMALL STRIP MALL - TYPE 1 - 90.1-2013 SERVICE WATER LOOP,Plant Supply,PIPE ADIABATIC 25 INLET WATER NODE,STRIPMALL STRIP MALL - TYPE 1 - 90.1-2013 SERVICE WATER LOOP SUPPLY OUTLET NODE
 Branch List,28,STRIPMALL STRIP MALL - TYPE 1 - 90.1-2013 SERVICE WATER LOOP DEMAND BRANCHES,STRIPMALL STRIP MALL - TYPE 1 - 90.1-2013 SERVICE WATER LOOP,Plant Demand,5
   Branch,1,STRIPMALL STRIP MALL - TYPE 1 - 90.1-2013 SERVICE WATER LOOP DEMAND INLET BRANCH,STRIPMALL STRIP MALL - TYPE 1 - 90.1-2013 SERVICE WATER LOOP,Plant Demand,STRIPMALL STRIP MALL - TYPE 1 - 90.1-2013 SERVICE WATER LOOP DEMAND INLET NODE,STRIPMALL STRIP MALL - TYPE 1 - 90.1-2013 SERVICE WATER LOOP PIPE 720.0FT OUTLET WATER NODE
   Branch,2,STRIPMALL STRIP MALL - TYPE 1 - 90.1-2013 SERVICE WATER LOOP DEMAND BRANCH 1,STRIPMALL STRIP MALL - TYPE 1 - 90.1-2013 SERVICE WATER LOOP,Plant Demand,PIPE ADIABATIC 24 INLET WATER NODE,PIPE ADIABATIC 24 OUTLET WATER NODE
   Branch,3,STRIPMALL STRIP MALL - TYPE 1 - 90.1-2013 SERVICE WATER LOOP DEMAND BRANCH 2,STRIPMALL STRIP MALL - TYPE 1 - 90.1-2013 SERVICE WATER LOOP,Plant Demand,STRIPMALL STRIP MALL - TYPE 1 - 90.1-2013 36 UNITS WUC 1.08GPM AT 140F INLET WATER NODE,STRIPMALL STRIP MALL - TYPE 1 - 90.1-2013 36 UNITS WUC 1.08GPM AT 140F OUTLET WATER NODE
   Branch,4,STRIPMALL STRIP MALL - TYPE 1 - 90.1-2013 SERVICE WATER LOOP DEMAND BYPASS BRANCH,STRIPMALL STRIP MALL - TYPE 1 - 90.1-2013 SERVICE WATER LOOP,Plant Demand,STRIPMALL STRIP MALL - TYPE 1 - 90.1-2013 SERVICE WATER LOOP DEMAND BYPASS PIPE INLET NODE,STRIPMALL STRIP MALL - TYPE 1 - 90.1-2013 SERVICE WATER LOOP DEMAND BYPASS PIPE OUTLET NODE
   Branch,5,STRIPMALL STRIP MALL - TYPE 1 - 90.1-2013 SERVICE WATER LOOP DEMAND OUTLET BRANCH,STRIPMALL STRIP MALL - TYPE 1 - 90.1-2013 SERVICE WATER LOOP,Plant Demand,PIPE ADIABATIC 26 INLET WATER NODE,STRIPMALL STRIP MALL - TYPE 1 - 90.1-2013 SERVICE WATER LOOP DEMAND OUTLET NODE
 Branch List,29,STRIPMALL STRIP MALL - TYPE 2 - 90.1-2013 SERVICE WATER LOOP SUPPLY BRANCHES,STRIPMALL STRIP MALL - TYPE 2 - 90.1-2013 SERVICE WATER LOOP,Plant Supply,4
   Branch,1,STRIPMALL STRIP MALL - TYPE 2 - 90.1-2013 SERVICE WATER LOOP SUPPLY INLET BRANCH,STRIPMALL STRIP MALL - TYPE 2 - 90.1-2013 SERVICE WATER LOOP,Plant Supply,STRIPMALL STRIP MALL - TYPE 2 - 90.1-2013 SERVICE WATER LOOP SUPPLY INLET NODE,STRIPMALL STRIP MALL - TYPE 2 - 90.1-2013 SERVICE WATER LOOP WATER MAINS PRESSURE DRIVEN OUTLET WATER NODE
   Branch,2,STRIPMALL STRIP MALL - TYPE 2 - 90.1-2013 SERVICE WATER LOOP SUPPLY BRANCH 1,STRIPMALL STRIP MALL - TYPE 2 - 90.1-2013 SERVICE WATER LOOP,Plant Supply,36X 50GAL ELECTRICITY WATER HEATER - 20KBTU/HR 1 SUPPLY INLET WATER NODE,36X 50GAL ELECTRICITY WATER HEATER - 20KBTU/HR 1 SUPPLY OUTLET WATER NODE
   Branch,3,STRIPMALL STRIP MALL - TYPE 2 - 90.1-2013 SERVICE WATER LOOP SUPPLY BRANCH 2,STRIPMALL STRIP MALL - TYPE 2 - 90.1-2013 SERVICE WATER LOOP,Plant Supply,PIPE ADIABATIC 27 INLET WATER NODE,PIPE ADIABATIC 27 OUTLET WATER NODE
   Branch,4,STRIPMALL STRIP MALL - TYPE 2 - 90.1-2013 SERVICE WATER LOOP SUPPLY OUTLET BRANCH,STRIPMALL STRIP MALL - TYPE 2 - 90.1-2013 SERVICE WATER LOOP,Plant Supply,PIPE ADIABATIC 29 INLET WATER NODE,STRIPMALL STRIP MALL - TYPE 2 - 90.1-2013 SERVICE WATER LOOP SUPPLY OUTLET NODE
 Branch List,30,STRIPMALL STRIP MALL - TYPE 2 - 90.1-2013 SERVICE WATER LOOP DEMAND BRANCHES,STRIPMALL STRIP MALL - TYPE 2 - 90.1-2013 SERVICE WATER LOOP,Plant Demand,5
   Branch,1,STRIPMALL STRIP MALL - TYPE 2 - 90.1-2013 SERVICE WATER LOOP DEMAND INLET BRANCH,STRIPMALL STRIP MALL - TYPE 2 - 90.1-2013 SERVICE WATER LOOP,Plant Demand,STRIPMALL STRIP MALL - TYPE 2 - 90.1-2013 SERVICE WATER LOOP DEMAND INLET NODE,STRIPMALL STRIP MALL - TYPE 2 - 90.1-2013 SERVICE WATER LOOP PIPE 720.0FT OUTLET WATER NODE
   Branch,2,STRIPMALL STRIP MALL - TYPE 2 - 90.1-2013 SERVICE WATER LOOP DEMAND BRANCH 1,STRIPMALL STRIP MALL - TYPE 2 - 90.1-2013 SERVICE WATER LOOP,Plant Demand,PIPE ADIABATIC 28 INLET WATER NODE,PIPE ADIABATIC 28 OUTLET WATER NODE
   Branch,3,STRIPMALL STRIP MALL - TYPE 2 - 90.1-2013 SERVICE WATER LOOP DEMAND BRANCH 2,STRIPMALL STRIP MALL - TYPE 2 - 90.1-2013 SERVICE WATER LOOP,Plant Demand,STRIPMALL STRIP MALL - TYPE 2 - 90.1-2013 36 UNITS WUC 1.08GPM AT 140F INLET WATER NODE,STRIPMALL STRIP MALL - TYPE 2 - 90.1-2013 36 UNITS WUC 1.08GPM AT 140F OUTLET WATER NODE
   Branch,4,STRIPMALL STRIP MALL - TYPE 2 - 90.1-2013 SERVICE WATER LOOP DEMAND BYPASS BRANCH,STRIPMALL STRIP MALL - TYPE 2 - 90.1-2013 SERVICE WATER LOOP,Plant Demand,STRIPMALL STRIP MALL - TYPE 2 - 90.1-2013 SERVICE WATER LOOP DEMAND BYPASS PIPE INLET NODE,STRIPMALL STRIP MALL - TYPE 2 - 90.1-2013 SERVICE WATER LOOP DEMAND BYPASS PIPE OUTLET NODE
   Branch,5,STRIPMALL STRIP MALL - TYPE 2 - 90.1-2013 SERVICE WATER LOOP DEMAND OUTLET BRANCH,STRIPMALL STRIP MALL - TYPE 2 - 90.1-2013 SERVICE WATER LOOP,Plant Demand,PIPE ADIABATIC 30 INLET WATER NODE,STRIPMALL STRIP MALL - TYPE 2 - 90.1-2013 SERVICE WATER LOOP DEMAND OUTLET NODE
 Branch List,31,STRIPMALL STRIP MALL - TYPE 3 - 90.1-2013 SERVICE WATER LOOP SUPPLY BRANCHES,STRIPMALL STRIP MALL - TYPE 3 - 90.1-2013 SERVICE WATER LOOP,Plant Supply,4
   Branch,1,STRIPMALL STRIP MALL - TYPE 3 - 90.1-2013 SERVICE WATER LOOP SUPPLY INLET BRANCH,STRIPMALL STRIP MALL - TYPE 3 - 90.1-2013 SERVICE WATER LOOP,Plant Supply,STRIPMALL STRIP MALL - TYPE 3 - 90.1-2013 SERVICE WATER LOOP SUPPLY INLET NODE,STRIPMALL STRIP MALL - TYPE 3 - 90.1-2013 SERVICE WATER LOOP WATER MAINS PRESSURE DRIVEN OUTLET WATER NODE
   Branch,2,STRIPMALL STRIP MALL - TYPE 3 - 90.1-2013 SERVICE WATER LOOP SUPPLY BRANCH 1,STRIPMALL STRIP MALL - TYPE 3 - 90.1-2013 SERVICE WATER LOOP,Plant Supply,71X 50GAL ELECTRICITY WATER HEATER - 20KBTU/HR SUPPLY INLET WATER NODE,71X 50GAL ELECTRICITY WATER HEATER - 20KBTU/HR SUPPLY OUTLET WATER NODE
   Branch,3,STRIPMALL STRIP MALL - TYPE 3 - 90.1-2013 SERVICE WATER LOOP SUPPLY BRANCH 2,STRIPMALL STRIP MALL - TYPE 3 - 90.1-2013 SERVICE WATER LOOP,Plant Supply,PIPE ADIABATIC 31 INLET WATER NODE,PIPE ADIABATIC 31 OUTLET WATER NODE
   Branch,4,STRIPMALL STRIP MALL - TYPE 3 - 90.1-2013 SERVICE WATER LOOP SUPPLY OUTLET BRANCH,STRIPMALL STRIP MALL - TYPE 3 - 90.1-2013 SERVICE WATER LOOP,Plant Supply,PIPE ADIABATIC 33 INLET WATER NODE,STRIPMALL STRIP MALL - TYPE 3 - 90.1-2013 SERVICE WATER LOOP SUPPLY OUTLET NODE
 Branch List,32,STRIPMALL STRIP MALL - TYPE 3 - 90.1-2013 SERVICE WATER LOOP DEMAND BRANCHES,STRIPMALL STRIP MALL - TYPE 3 - 90.1-2013 SERVICE WATER LOOP,Plant Demand,5
   Branch,1,STRIPMALL STRIP MALL - TYPE 3 - 90.1-2013 SERVICE WATER LOOP DEMAND INLET BRANCH,STRIPMALL STRIP MALL - TYPE 3 - 90.1-2013 SERVICE WATER LOOP,Plant Demand,STRIPMALL STRIP MALL - TYPE 3 - 90.1-2013 SERVICE WATER LOOP DEMAND INLET NODE,STRIPMALL STRIP MALL - TYPE 3 - 90.1-2013 SERVICE WATER LOOP PIPE 1420.0FT OUTLET WATER NODE
   Branch,2,STRIPMALL STRIP MALL - TYPE 3 - 90.1-2013 SERVICE WATER LOOP DEMAND BRANCH 1,STRIPMALL STRIP MALL - TYPE 3 - 90.1-2013 SERVICE WATER LOOP,Plant Demand,PIPE ADIABATIC 32 INLET WATER NODE,PIPE ADIABATIC 32 OUTLET WATER NODE
   Branch,3,STRIPMALL STRIP MALL - TYPE 3 - 90.1-2013 SERVICE WATER LOOP DEMAND BRANCH 2,STRIPMALL STRIP MALL - TYPE 3 - 90.1-2013 SERVICE WATER LOOP,Plant Demand,STRIPMALL STRIP MALL - TYPE 3 - 90.1-2013 71 UNITS WUC 2.13GPM AT 140F INLET WATER NODE,STRIPMALL STRIP MALL - TYPE 3 - 90.1-2013 71 UNITS WUC 2.13GPM AT 140F OUTLET WATER NODE
   Branch,4,STRIPMALL STRIP MALL - TYPE 3 - 90.1-2013 SERVICE WATER LOOP DEMAND BYPASS BRANCH,STRIPMALL STRIP MALL - TYPE 3 - 90.1-2013 SERVICE WATER LOOP,Plant Demand,STRIPMALL STRIP MALL - TYPE 3 - 90.1-2013 SERVICE WATER LOOP DEMAND BYPASS PIPE INLET NODE,STRIPMALL STRIP MALL - TYPE 3 - 90.1-2013 SERVICE WATER LOOP DEMAND BYPASS PIPE OUTLET NODE
   Branch,5,STRIPMALL STRIP MALL - TYPE 3 - 90.1-2013 SERVICE WATER LOOP DEMAND OUTLET BRANCH,STRIPMALL STRIP MALL - TYPE 3 - 90.1-2013 SERVICE WATER LOOP,Plant Demand,PIPE ADIABATIC 34 INLET WATER NODE,STRIPMALL STRIP MALL - TYPE 3 - 90.1-2013 SERVICE WATER LOOP DEMAND OUTLET NODE
! ===============================================================
! <#Supply Air Paths>,<Number of Supply Air Paths>
 #Supply Air Paths,6
! <Supply Air Path>,<Supply Air Path Count>,<Supply Air Path Name>,<AirLoopHVAC Name>
! <#Components on Supply Air Path>,<Number of Components>
! <Supply Air Path Component>,<Component Count>,<Component Type>,<Component Name>,<AirLoopHVAC Name>
! <#Outlet Nodes on Supply Air Path Component>,<Number of Nodes>
! <Supply Air Path Component Nodes>,<Node Count>,<Component Type>,<Component Name>,<Inlet Node Name>,<Outlet Node Name>,<AirLoopHVAC Name>
 Supply Air Path,1,1 ZONE VAV 1 ZONE VAV DEMAND INLET NODE SUPPLY PATH,1 ZONE VAV
   #Components on Supply Air Path,1
   Supply Air Path Component,1,AIRLOOPHVAC:ZONESPLITTER,AIR LOOP HVAC ZONE SPLITTER 1,1 ZONE VAV
     #Outlet Nodes on Supply Air Path Component,1
     Supply Air Path Component Nodes,1,AIRLOOPHVAC:ZONESPLITTER,AIR LOOP HVAC ZONE SPLITTER 1,1 ZONE VAV DEMAND INLET NODE,BUILDING STORY 2 THERMALZONE VAV TERMINAL INLET AIR NODE,1 ZONE VAV
! <#Nodes on Supply Air Path>,<Number of Nodes>
! <Supply Air Path Node>,<Node Type>,<Node Count>,<Node Name>,<AirLoopHVAC Name>
#Nodes on Supply Air Path,2
   Supply Air Path Node,Inlet Node,1,1 ZONE VAV DEMAND INLET NODE,1 ZONE VAV
   Supply Air Path Node,Outlet Node,2,BUILDING STORY 2 THERMALZONE VAV TERMINAL INLET AIR NODE,1 ZONE VAV
 Supply Air Path,2,1 ZONE VAV 1 1 ZONE VAV 1 DEMAND INLET NODE SUPPLY PATH,1 ZONE VAV 1
   #Components on Supply Air Path,1
   Supply Air Path Component,1,AIRLOOPHVAC:ZONESPLITTER,AIR LOOP HVAC ZONE SPLITTER 2,1 ZONE VAV 1
     #Outlet Nodes on Supply Air Path Component,1
     Supply Air Path Component Nodes,1,AIRLOOPHVAC:ZONESPLITTER,AIR LOOP HVAC ZONE SPLITTER 2,1 ZONE VAV 1 DEMAND INLET NODE,BUILDING STORY 8 THERMALZONE VAV TERMINAL INLET AIR NODE,1 ZONE VAV 1
! <#Nodes on Supply Air Path>,<Number of Nodes>
! <Supply Air Path Node>,<Node Type>,<Node Count>,<Node Name>,<AirLoopHVAC Name>
#Nodes on Supply Air Path,2
   Supply Air Path Node,Inlet Node,1,1 ZONE VAV 1 DEMAND INLET NODE,1 ZONE VAV 1
   Supply Air Path Node,Outlet Node,2,BUILDING STORY 8 THERMALZONE VAV TERMINAL INLET AIR NODE,1 ZONE VAV 1
 Supply Air Path,3,1 ZONE VAV 2 1 ZONE VAV 2 DEMAND INLET NODE SUPPLY PATH,1 ZONE VAV 2
   #Components on Supply Air Path,1
   Supply Air Path Component,1,AIRLOOPHVAC:ZONESPLITTER,AIR LOOP HVAC ZONE SPLITTER 3,1 ZONE VAV 2
     #Outlet Nodes on Supply Air Path Component,1
     Supply Air Path Component Nodes,1,AIRLOOPHVAC:ZONESPLITTER,AIR LOOP HVAC ZONE SPLITTER 3,1 ZONE VAV 2 DEMAND INLET NODE,BUILDING STORY 1 THERMALZONE VAV TERMINAL INLET AIR NODE,1 ZONE VAV 2
! <#Nodes on Supply Air Path>,<Number of Nodes>
! <Supply Air Path Node>,<Node Type>,<Node Count>,<Node Name>,<AirLoopHVAC Name>
#Nodes on Supply Air Path,2
   Supply Air Path Node,Inlet Node,1,1 ZONE VAV 2 DEMAND INLET NODE,1 ZONE VAV 2
   Supply Air Path Node,Outlet Node,2,BUILDING STORY 1 THERMALZONE VAV TERMINAL INLET AIR NODE,1 ZONE VAV 2
 Supply Air Path,4,1 ZONE VAV 3 1 ZONE VAV 3 DEMAND INLET NODE SUPPLY PATH,1 ZONE VAV 3
   #Components on Supply Air Path,1
   Supply Air Path Component,1,AIRLOOPHVAC:ZONESPLITTER,AIR LOOP HVAC ZONE SPLITTER 4,1 ZONE VAV 3
     #Outlet Nodes on Supply Air Path Component,1
     Supply Air Path Component Nodes,1,AIRLOOPHVAC:ZONESPLITTER,AIR LOOP HVAC ZONE SPLITTER 4,1 ZONE VAV 3 DEMAND INLET NODE,BUILDING STORY 3 THERMALZONE VAV TERMINAL INLET AIR NODE,1 ZONE VAV 3
! <#Nodes on Supply Air Path>,<Number of Nodes>
! <Supply Air Path Node>,<Node Type>,<Node Count>,<Node Name>,<AirLoopHVAC Name>
#Nodes on Supply Air Path,2
   Supply Air Path Node,Inlet Node,1,1 ZONE VAV 3 DEMAND INLET NODE,1 ZONE VAV 3
   Supply Air Path Node,Outlet Node,2,BUILDING STORY 3 THERMALZONE VAV TERMINAL INLET AIR NODE,1 ZONE VAV 3
 Supply Air Path,5,1 ZONE VAV 4 1 ZONE VAV 4 DEMAND INLET NODE SUPPLY PATH,1 ZONE VAV 4
   #Components on Supply Air Path,1
   Supply Air Path Component,1,AIRLOOPHVAC:ZONESPLITTER,AIR LOOP HVAC ZONE SPLITTER 5,1 ZONE VAV 4
     #Outlet Nodes on Supply Air Path Component,1
     Supply Air Path Component Nodes,1,AIRLOOPHVAC:ZONESPLITTER,AIR LOOP HVAC ZONE SPLITTER 5,1 ZONE VAV 4 DEMAND INLET NODE,BUILDING STORY 5 THERMALZONE VAV TERMINAL INLET AIR NODE,1 ZONE VAV 4
! <#Nodes on Supply Air Path>,<Number of Nodes>
! <Supply Air Path Node>,<Node Type>,<Node Count>,<Node Name>,<AirLoopHVAC Name>
#Nodes on Supply Air Path,2
   Supply Air Path Node,Inlet Node,1,1 ZONE VAV 4 DEMAND INLET NODE,1 ZONE VAV 4
   Supply Air Path Node,Outlet Node,2,BUILDING STORY 5 THERMALZONE VAV TERMINAL INLET AIR NODE,1 ZONE VAV 4
 Supply Air Path,6,1 ZONE VAV 5 1 ZONE VAV 5 DEMAND INLET NODE SUPPLY PATH,1 ZONE VAV 5
   #Components on Supply Air Path,1
   Supply Air Path Component,1,AIRLOOPHVAC:ZONESPLITTER,AIR LOOP HVAC ZONE SPLITTER 6,1 ZONE VAV 5
     #Outlet Nodes on Supply Air Path Component,1
     Supply Air Path Component Nodes,1,AIRLOOPHVAC:ZONESPLITTER,AIR LOOP HVAC ZONE SPLITTER 6,1 ZONE VAV 5 DEMAND INLET NODE,BUILDING STORY 6 THERMALZONE VAV TERMINAL INLET AIR NODE,1 ZONE VAV 5
! <#Nodes on Supply Air Path>,<Number of Nodes>
! <Supply Air Path Node>,<Node Type>,<Node Count>,<Node Name>,<AirLoopHVAC Name>
#Nodes on Supply Air Path,2
   Supply Air Path Node,Inlet Node,1,1 ZONE VAV 5 DEMAND INLET NODE,1 ZONE VAV 5
   Supply Air Path Node,Outlet Node,2,BUILDING STORY 6 THERMALZONE VAV TERMINAL INLET AIR NODE,1 ZONE VAV 5
! ===============================================================
! <#Return Air Paths>,<Number of Return Air Paths>
 #Return Air Paths,6
! <Return Air Path>,<Return Air Path Count>,<Return Air Path Name>,<AirLoopHVAC Name>
! <#Components on Return Air Path>,<Number of Components>
! <Return Air Path Component>,<Component Count>,<Component Type>,<Component Name>,<AirLoopHVAC Name>
! <#Inlet Nodes on Return Air Path Component>,<Number of Nodes>
! <Return Air Path Component Nodes>,<Node Count>,<Component Type>,<Component Name>,<Inlet Node Name>,<Outlet Node Name>,<AirLoopHVAC Name>
 Return Air Path,1,1 ZONE VAV RETURN PATH,1 ZONE VAV
   #Components on Return Air Path,1
   Return Air Path Component,1,AIRLOOPHVAC:ZONEMIXER,AIR LOOP HVAC ZONE MIXER 1,1 ZONE VAV
     #Inlet Nodes on Return Air Path Component,1
     Return Air Path Component Nodes,1,AIRLOOPHVAC:ZONEMIXER,AIR LOOP HVAC ZONE MIXER 1,BUILDING STORY 2 THERMALZONE RETURN AIR NODE,1 ZONE VAV DEMAND OUTLET NODE,1 ZONE VAV
! <#Nodes on Return Air Path>,<Number of Nodes>
! <Return Air Path Node>,<Node Type>,<Node Count>,<Node Name>,<AirLoopHVAC Name>
   #Nodes on Return Air Path,2
   Return Air Path Node,Outlet Node,1,1 ZONE VAV DEMAND OUTLET NODE,1 ZONE VAV
   Return Air Path Node,Inlet Node,2,BUILDING STORY 2 THERMALZONE RETURN AIR NODE,1 ZONE VAV
 Return Air Path,2,1 ZONE VAV 1 RETURN PATH,1 ZONE VAV 1
   #Components on Return Air Path,1
   Return Air Path Component,1,AIRLOOPHVAC:ZONEMIXER,AIR LOOP HVAC ZONE MIXER 2,1 ZONE VAV 1
     #Inlet Nodes on Return Air Path Component,1
     Return Air Path Component Nodes,1,AIRLOOPHVAC:ZONEMIXER,AIR LOOP HVAC ZONE MIXER 2,BUILDING STORY 8 THERMALZONE RETURN AIR NODE,1 ZONE VAV 1 DEMAND OUTLET NODE,1 ZONE VAV 1
! <#Nodes on Return Air Path>,<Number of Nodes>
! <Return Air Path Node>,<Node Type>,<Node Count>,<Node Name>,<AirLoopHVAC Name>
   #Nodes on Return Air Path,2
   Return Air Path Node,Outlet Node,1,1 ZONE VAV 1 DEMAND OUTLET NODE,1 ZONE VAV 1
   Return Air Path Node,Inlet Node,2,BUILDING STORY 8 THERMALZONE RETURN AIR NODE,1 ZONE VAV 1
 Return Air Path,3,1 ZONE VAV 2 RETURN PATH,1 ZONE VAV 2
   #Components on Return Air Path,1
   Return Air Path Component,1,AIRLOOPHVAC:ZONEMIXER,AIR LOOP HVAC ZONE MIXER 3,1 ZONE VAV 2
     #Inlet Nodes on Return Air Path Component,1
     Return Air Path Component Nodes,1,AIRLOOPHVAC:ZONEMIXER,AIR LOOP HVAC ZONE MIXER 3,BUILDING STORY 1 THERMALZONE RETURN AIR NODE,1 ZONE VAV 2 DEMAND OUTLET NODE,1 ZONE VAV 2
! <#Nodes on Return Air Path>,<Number of Nodes>
! <Return Air Path Node>,<Node Type>,<Node Count>,<Node Name>,<AirLoopHVAC Name>
   #Nodes on Return Air Path,2
   Return Air Path Node,Outlet Node,1,1 ZONE VAV 2 DEMAND OUTLET NODE,1 ZONE VAV 2
   Return Air Path Node,Inlet Node,2,BUILDING STORY 1 THERMALZONE RETURN AIR NODE,1 ZONE VAV 2
 Return Air Path,4,1 ZONE VAV 3 RETURN PATH,1 ZONE VAV 3
   #Components on Return Air Path,1
   Return Air Path Component,1,AIRLOOPHVAC:ZONEMIXER,AIR LOOP HVAC ZONE MIXER 4,1 ZONE VAV 3
     #Inlet Nodes on Return Air Path Component,1
     Return Air Path Component Nodes,1,AIRLOOPHVAC:ZONEMIXER,AIR LOOP HVAC ZONE MIXER 4,BUILDING STORY 3 THERMALZONE RETURN AIR NODE,1 ZONE VAV 3 DEMAND OUTLET NODE,1 ZONE VAV 3
! <#Nodes on Return Air Path>,<Number of Nodes>
! <Return Air Path Node>,<Node Type>,<Node Count>,<Node Name>,<AirLoopHVAC Name>
   #Nodes on Return Air Path,2
   Return Air Path Node,Outlet Node,1,1 ZONE VAV 3 DEMAND OUTLET NODE,1 ZONE VAV 3
   Return Air Path Node,Inlet Node,2,BUILDING STORY 3 THERMALZONE RETURN AIR NODE,1 ZONE VAV 3
 Return Air Path,5,1 ZONE VAV 4 RETURN PATH,1 ZONE VAV 4
   #Components on Return Air Path,1
   Return Air Path Component,1,AIRLOOPHVAC:ZONEMIXER,AIR LOOP HVAC ZONE MIXER 5,1 ZONE VAV 4
     #Inlet Nodes on Return Air Path Component,1
     Return Air Path Component Nodes,1,AIRLOOPHVAC:ZONEMIXER,AIR LOOP HVAC ZONE MIXER 5,BUILDING STORY 5 THERMALZONE RETURN AIR NODE,1 ZONE VAV 4 DEMAND OUTLET NODE,1 ZONE VAV 4
! <#Nodes on Return Air Path>,<Number of Nodes>
! <Return Air Path Node>,<Node Type>,<Node Count>,<Node Name>,<AirLoopHVAC Name>
   #Nodes on Return Air Path,2
   Return Air Path Node,Outlet Node,1,1 ZONE VAV 4 DEMAND OUTLET NODE,1 ZONE VAV 4
   Return Air Path Node,Inlet Node,2,BUILDING STORY 5 THERMALZONE RETURN AIR NODE,1 ZONE VAV 4
 Return Air Path,6,1 ZONE VAV 5 RETURN PATH,1 ZONE VAV 5
   #Components on Return Air Path,1
   Return Air Path Component,1,AIRLOOPHVAC:ZONEMIXER,AIR LOOP HVAC ZONE MIXER 6,1 ZONE VAV 5
     #Inlet Nodes on Return Air Path Component,1
     Return Air Path Component Nodes,1,AIRLOOPHVAC:ZONEMIXER,AIR LOOP HVAC ZONE MIXER 6,BUILDING STORY 6 THERMALZONE RETURN AIR NODE,1 ZONE VAV 5 DEMAND OUTLET NODE,1 ZONE VAV 5
! <#Nodes on Return Air Path>,<Number of Nodes>
! <Return Air Path Node>,<Node Type>,<Node Count>,<Node Name>,<AirLoopHVAC Name>
   #Nodes on Return Air Path,2
   Return Air Path Node,Outlet Node,1,1 ZONE VAV 5 DEMAND OUTLET NODE,1 ZONE VAV 5
   Return Air Path Node,Inlet Node,2,BUILDING STORY 6 THERMALZONE RETURN AIR NODE,1 ZONE VAV 5
! ===============================================================
! #Outdoor Air Nodes,<Number of Outdoor Air Nodes>
 #Outdoor Air Nodes,9
! <Outdoor Air Node>,<NodeNumber>,<Node Name>
 Outdoor Air Node,346,BUILDING STORY 4 THERMALZONE PTAC OA NODE
 Outdoor Air Node,347,BUILDING STORY 7 THERMALZONE PTAC OA NODE
 Outdoor Air Node,348,1 ZONE VAV OUTDOOR AIR NODE
 Outdoor Air Node,349,1 ZONE VAV 1 OUTDOOR AIR NODE
 Outdoor Air Node,350,1 ZONE VAV 2 OUTDOOR AIR NODE
 Outdoor Air Node,351,1 ZONE VAV 3 OUTDOOR AIR NODE
 Outdoor Air Node,352,1 ZONE VAV 4 OUTDOOR AIR NODE
 Outdoor Air Node,353,1 ZONE VAV 5 OUTDOOR AIR NODE
 Outdoor Air Node,354,MODEL OUTDOOR AIR NODE
! ===============================================================
! <#Component Sets>,<Number of Component Sets>
 #Component Sets,192
! <Component Set>,<Component Set Count>,<Parent Object Type>,<Parent Object Name>,<Component Type>,<Component Name>,<Inlet Node ID>,<Outlet Node ID>,<Description>
 Component Set,1,BRANCH,1 ZONE VAV MAIN BRANCH,AIRLOOPHVAC:OUTDOORAIRSYSTEM,1 ZONE VAV OA SYSTEM,1 ZONE VAV SUPPLY INLET NODE,1 ZONE VAV MIXED AIR NODE,Air Nodes
 Component Set,2,BRANCH,1 ZONE VAV MAIN BRANCH,COIL:COOLING:WATER,1 ZONE VAV CLG COIL,1 ZONE VAV MIXED AIR NODE,1 ZONE VAV CLG COIL OUTLET AIR NODE,Air Nodes
 Component Set,3,BRANCH,1 ZONE VAV MAIN BRANCH,COIL:HEATING:WATER,1 ZONE VAV MAIN HTG COIL,1 ZONE VAV CLG COIL OUTLET AIR NODE,1 ZONE VAV MAIN HTG COIL OUTLET AIR NODE,Air Nodes
 Component Set,4,BRANCH,1 ZONE VAV MAIN BRANCH,FAN:VARIABLEVOLUME,1 ZONE VAV FAN,1 ZONE VAV MAIN HTG COIL OUTLET AIR NODE,1 ZONE VAV SUPPLY OUTLET NODE,Air Nodes
 Component Set,5,BRANCH,1 ZONE VAV 1 MAIN BRANCH,AIRLOOPHVAC:OUTDOORAIRSYSTEM,1 ZONE VAV 1 OA SYSTEM,1 ZONE VAV 1 SUPPLY INLET NODE,1 ZONE VAV 1 MIXED AIR NODE,Air Nodes
 Component Set,6,BRANCH,1 ZONE VAV 1 MAIN BRANCH,COIL:COOLING:WATER,1 ZONE VAV 1 CLG COIL,1 ZONE VAV 1 MIXED AIR NODE,1 ZONE VAV 1 CLG COIL OUTLET AIR NODE,Air Nodes
 Component Set,7,BRANCH,1 ZONE VAV 1 MAIN BRANCH,COIL:HEATING:WATER,1 ZONE VAV 1 MAIN HTG COIL,1 ZONE VAV 1 CLG COIL OUTLET AIR NODE,1 ZONE VAV 1 MAIN HTG COIL OUTLET AIR NODE,Air Nodes
 Component Set,8,BRANCH,1 ZONE VAV 1 MAIN BRANCH,FAN:VARIABLEVOLUME,1 ZONE VAV 1 FAN,1 ZONE VAV 1 MAIN HTG COIL OUTLET AIR NODE,1 ZONE VAV 1 SUPPLY OUTLET NODE,Air Nodes
 Component Set,9,BRANCH,1 ZONE VAV 2 MAIN BRANCH,AIRLOOPHVAC:OUTDOORAIRSYSTEM,1 ZONE VAV 2 OA SYSTEM,1 ZONE VAV 2 SUPPLY INLET NODE,1 ZONE VAV 2 MIXED AIR NODE,Air Nodes
[...]
 Non-Parent Node Connection,1 ZONE VAV 5 CLG COIL OUTLET AIR NODE,CONTROLLER:WATERCOIL,1 ZONE VAV 5 CLG COIL CONTROLLER,Sensor,1
 Non-Parent Node Connection,1 ZONE VAV 5 CLG COIL INLET WATER NODE,CONTROLLER:WATERCOIL,1 ZONE VAV 5 CLG COIL CONTROLLER,Actuator,1
 Non-Parent Node Connection,1 ZONE VAV 5 MAIN HTG COIL OUTLET AIR NODE,CONTROLLER:WATERCOIL,1 ZONE VAV 5 MAIN HTG COIL CONTROLLER,Sensor,1
 Non-Parent Node Connection,1 ZONE VAV 5 MAIN HTG COIL INLET WATER NODE,CONTROLLER:WATERCOIL,1 ZONE VAV 5 MAIN HTG COIL CONTROLLER,Actuator,1
 Non-Parent Node Connection,BUILDING STORY 4 THERMALZONE PTAC MIXED AIR NODE,OUTDOORAIR:MIXER,BUILDING STORY 4 THERMALZONE PTAC OA MIXER,Outlet,1
 Non-Parent Node Connection,BUILDING STORY 4 THERMALZONE PTAC OA NODE,OUTDOORAIR:MIXER,BUILDING STORY 4 THERMALZONE PTAC OA MIXER,Inlet,1
 Non-Parent Node Connection,BUILDING STORY 4 THERMALZONE PTAC RELIEF AIR NODE,OUTDOORAIR:MIXER,BUILDING STORY 4 THERMALZONE PTAC OA MIXER,ReliefAir,1
 Non-Parent Node Connection,BUILDING STORY 4 THERMALZONE PTAC INLET AIR NODE,OUTDOORAIR:MIXER,BUILDING STORY 4 THERMALZONE PTAC OA MIXER,Inlet,1
 Non-Parent Node Connection,BUILDING STORY 7 THERMALZONE PTAC MIXED AIR NODE,OUTDOORAIR:MIXER,BUILDING STORY 7 THERMALZONE PTAC OA MIXER,Outlet,1
 Non-Parent Node Connection,BUILDING STORY 7 THERMALZONE PTAC OA NODE,OUTDOORAIR:MIXER,BUILDING STORY 7 THERMALZONE PTAC OA MIXER,Inlet,1
 Non-Parent Node Connection,BUILDING STORY 7 THERMALZONE PTAC RELIEF AIR NODE,OUTDOORAIR:MIXER,BUILDING STORY 7 THERMALZONE PTAC OA MIXER,ReliefAir,1
 Non-Parent Node Connection,BUILDING STORY 7 THERMALZONE PTAC INLET AIR NODE,OUTDOORAIR:MIXER,BUILDING STORY 7 THERMALZONE PTAC OA MIXER,Inlet,1
 Non-Parent Node Connection,1 ZONE VAV MIXED AIR NODE,OUTDOORAIR:MIXER,1 ZONE VAV OA SYSTEM OUTDOOR AIR MIXER,Outlet,1
 Non-Parent Node Connection,1 ZONE VAV OUTDOOR AIR NODE,OUTDOORAIR:MIXER,1 ZONE VAV OA SYSTEM OUTDOOR AIR MIXER,Inlet,1
 Non-Parent Node Connection,1 ZONE VAV RELIEF AIR NODE,OUTDOORAIR:MIXER,1 ZONE VAV OA SYSTEM OUTDOOR AIR MIXER,ReliefAir,1
 Non-Parent Node Connection,1 ZONE VAV SUPPLY INLET NODE,OUTDOORAIR:MIXER,1 ZONE VAV OA SYSTEM OUTDOOR AIR MIXER,Inlet,1
 Non-Parent Node Connection,1 ZONE VAV 1 MIXED AIR NODE,OUTDOORAIR:MIXER,1 ZONE VAV 1 OA SYSTEM OUTDOOR AIR MIXER,Outlet,1
 Non-Parent Node Connection,1 ZONE VAV 1 OUTDOOR AIR NODE,OUTDOORAIR:MIXER,1 ZONE VAV 1 OA SYSTEM OUTDOOR AIR MIXER,Inlet,1
 Non-Parent Node Connection,1 ZONE VAV 1 RELIEF AIR NODE,OUTDOORAIR:MIXER,1 ZONE VAV 1 OA SYSTEM OUTDOOR AIR MIXER,ReliefAir,1
 Non-Parent Node Connection,1 ZONE VAV 1 SUPPLY INLET NODE,OUTDOORAIR:MIXER,1 ZONE VAV 1 OA SYSTEM OUTDOOR AIR MIXER,Inlet,1
 Non-Parent Node Connection,1 ZONE VAV 2 MIXED AIR NODE,OUTDOORAIR:MIXER,1 ZONE VAV 2 OA SYSTEM OUTDOOR AIR MIXER,Outlet,1
 Non-Parent Node Connection,1 ZONE VAV 2 OUTDOOR AIR NODE,OUTDOORAIR:MIXER,1 ZONE VAV 2 OA SYSTEM OUTDOOR AIR MIXER,Inlet,1
 Non-Parent Node Connection,1 ZONE VAV 2 RELIEF AIR NODE,OUTDOORAIR:MIXER,1 ZONE VAV 2 OA SYSTEM OUTDOOR AIR MIXER,ReliefAir,1
 Non-Parent Node Connection,1 ZONE VAV 2 SUPPLY INLET NODE,OUTDOORAIR:MIXER,1 ZONE VAV 2 OA SYSTEM OUTDOOR AIR MIXER,Inlet,1
 Non-Parent Node Connection,1 ZONE VAV 3 MIXED AIR NODE,OUTDOORAIR:MIXER,1 ZONE VAV 3 OA SYSTEM OUTDOOR AIR MIXER,Outlet,1
 Non-Parent Node Connection,1 ZONE VAV 3 OUTDOOR AIR NODE,OUTDOORAIR:MIXER,1 ZONE VAV 3 OA SYSTEM OUTDOOR AIR MIXER,Inlet,1
 Non-Parent Node Connection,1 ZONE VAV 3 RELIEF AIR NODE,OUTDOORAIR:MIXER,1 ZONE VAV 3 OA SYSTEM OUTDOOR AIR MIXER,ReliefAir,1
 Non-Parent Node Connection,1 ZONE VAV 3 SUPPLY INLET NODE,OUTDOORAIR:MIXER,1 ZONE VAV 3 OA SYSTEM OUTDOOR AIR MIXER,Inlet,1
 Non-Parent Node Connection,1 ZONE VAV 4 MIXED AIR NODE,OUTDOORAIR:MIXER,1 ZONE VAV 4 OA SYSTEM OUTDOOR AIR MIXER,Outlet,1
 Non-Parent Node Connection,1 ZONE VAV 4 OUTDOOR AIR NODE,OUTDOORAIR:MIXER,1 ZONE VAV 4 OA SYSTEM OUTDOOR AIR MIXER,Inlet,1
 Non-Parent Node Connection,1 ZONE VAV 4 RELIEF AIR NODE,OUTDOORAIR:MIXER,1 ZONE VAV 4 OA SYSTEM OUTDOOR AIR MIXER,ReliefAir,1
 Non-Parent Node Connection,1 ZONE VAV 4 SUPPLY INLET NODE,OUTDOORAIR:MIXER,1 ZONE VAV 4 OA SYSTEM OUTDOOR AIR MIXER,Inlet,1
 Non-Parent Node Connection,1 ZONE VAV 5 MIXED AIR NODE,OUTDOORAIR:MIXER,1 ZONE VAV 5 OA SYSTEM OUTDOOR AIR MIXER,Outlet,1
 Non-Parent Node Connection,1 ZONE VAV 5 OUTDOOR AIR NODE,OUTDOORAIR:MIXER,1 ZONE VAV 5 OA SYSTEM OUTDOOR AIR MIXER,Inlet,1
 Non-Parent Node Connection,1 ZONE VAV 5 RELIEF AIR NODE,OUTDOORAIR:MIXER,1 ZONE VAV 5 OA SYSTEM OUTDOOR AIR MIXER,ReliefAir,1
 Non-Parent Node Connection,1 ZONE VAV 5 SUPPLY INLET NODE,OUTDOORAIR:MIXER,1 ZONE VAV 5 OA SYSTEM OUTDOOR AIR MIXER,Inlet,1
 Non-Parent Node Connection,BUILDING STORY 4 THERMALZONE PTAC HEATING COIL OUTLET NODE,FAN:CONSTANTVOLUME,BUILDING STORY 4 THERMALZONE PTAC FAN,Inlet,1
 Non-Parent Node Connection,BUILDING STORY 4 THERMALZONE PTAC OUTLET AIR NODE,FAN:CONSTANTVOLUME,BUILDING STORY 4 THERMALZONE PTAC FAN,Outlet,1
 Non-Parent Node Connection,BUILDING STORY 7 THERMALZONE PTAC HEATING COIL OUTLET NODE,FAN:CONSTANTVOLUME,BUILDING STORY 7 THERMALZONE PTAC FAN,Inlet,1
 Non-Parent Node Connection,BUILDING STORY 7 THERMALZONE PTAC OUTLET AIR NODE,FAN:CONSTANTVOLUME,BUILDING STORY 7 THERMALZONE PTAC FAN,Outlet,1
 Non-Parent Node Connection,1 ZONE VAV MAIN HTG COIL OUTLET AIR NODE,FAN:VARIABLEVOLUME,1 ZONE VAV FAN,Inlet,1
 Non-Parent Node Connection,1 ZONE VAV SUPPLY OUTLET NODE,FAN:VARIABLEVOLUME,1 ZONE VAV FAN,Outlet,1
 Non-Parent Node Connection,1 ZONE VAV 1 MAIN HTG COIL OUTLET AIR NODE,FAN:VARIABLEVOLUME,1 ZONE VAV 1 FAN,Inlet,1
 Non-Parent Node Connection,1 ZONE VAV 1 SUPPLY OUTLET NODE,FAN:VARIABLEVOLUME,1 ZONE VAV 1 FAN,Outlet,1
 Non-Parent Node Connection,1 ZONE VAV 2 MAIN HTG COIL OUTLET AIR NODE,FAN:VARIABLEVOLUME,1 ZONE VAV 2 FAN,Inlet,1
 Non-Parent Node Connection,1 ZONE VAV 2 SUPPLY OUTLET NODE,FAN:VARIABLEVOLUME,1 ZONE VAV 2 FAN,Outlet,1
 Non-Parent Node Connection,1 ZONE VAV 3 MAIN HTG COIL OUTLET AIR NODE,FAN:VARIABLEVOLUME,1 ZONE VAV 3 FAN,Inlet,1
 Non-Parent Node Connection,1 ZONE VAV 3 SUPPLY OUTLET NODE,FAN:VARIABLEVOLUME,1 ZONE VAV 3 FAN,Outlet,1
 Non-Parent Node Connection,1 ZONE VAV 4 MAIN HTG COIL OUTLET AIR NODE,FAN:VARIABLEVOLUME,1 ZONE VAV 4 FAN,Inlet,1
 Non-Parent Node Connection,1 ZONE VAV 4 SUPPLY OUTLET NODE,FAN:VARIABLEVOLUME,1 ZONE VAV 4 FAN,Outlet,1
 Non-Parent Node Connection,1 ZONE VAV 5 MAIN HTG COIL OUTLET AIR NODE,FAN:VARIABLEVOLUME,1 ZONE VAV 5 FAN,Inlet,1
 Non-Parent Node Connection,1 ZONE VAV 5 SUPPLY OUTLET NODE,FAN:VARIABLEVOLUME,1 ZONE VAV 5 FAN,Outlet,1
 Non-Parent Node Connection,BUILDING STORY 4 THERMALZONE PTAC MIXED AIR NODE,COIL:COOLING:DX:SINGLESPEED,BUILDING STORY 4 THERMALZONE PTAC 1SPD DX AC CLG COIL,Inlet,1
 Non-Parent Node Connection,BUILDING STORY 4 THERMALZONE PTAC COOLING COIL OUTLET NODE,COIL:COOLING:DX:SINGLESPEED,BUILDING STORY 4 THERMALZONE PTAC 1SPD DX AC CLG COIL,Outlet,1
 Non-Parent Node Connection,BUILDING STORY 7 THERMALZONE PTAC MIXED AIR NODE,COIL:COOLING:DX:SINGLESPEED,BUILDING STORY 7 THERMALZONE PTAC 1SPD DX AC CLG COIL,Inlet,1
 Non-Parent Node Connection,BUILDING STORY 7 THERMALZONE PTAC COOLING COIL OUTLET NODE,COIL:COOLING:DX:SINGLESPEED,BUILDING STORY 7 THERMALZONE PTAC 1SPD DX AC CLG COIL,Outlet,1
 Non-Parent Node Connection,1 ZONE VAV DEMAND OUTLET NODE,AIRLOOPHVAC:ZONEMIXER,AIR LOOP HVAC ZONE MIXER 1,Outlet,1
 Non-Parent Node Connection,BUILDING STORY 2 THERMALZONE RETURN AIR NODE,AIRLOOPHVAC:ZONEMIXER,AIR LOOP HVAC ZONE MIXER 1,Inlet,1
 Non-Parent Node Connection,1 ZONE VAV 1 DEMAND OUTLET NODE,AIRLOOPHVAC:ZONEMIXER,AIR LOOP HVAC ZONE MIXER 2,Outlet,1
 Non-Parent Node Connection,BUILDING STORY 8 THERMALZONE RETURN AIR NODE,AIRLOOPHVAC:ZONEMIXER,AIR LOOP HVAC ZONE MIXER 2,Inlet,1
 Non-Parent Node Connection,1 ZONE VAV 2 DEMAND OUTLET NODE,AIRLOOPHVAC:ZONEMIXER,AIR LOOP HVAC ZONE MIXER 3,Outlet,1
 Non-Parent Node Connection,BUILDING STORY 1 THERMALZONE RETURN AIR NODE,AIRLOOPHVAC:ZONEMIXER,AIR LOOP HVAC ZONE MIXER 3,Inlet,1
 Non-Parent Node Connection,1 ZONE VAV 3 DEMAND OUTLET NODE,AIRLOOPHVAC:ZONEMIXER,AIR LOOP HVAC ZONE MIXER 4,Outlet,1
 Non-Parent Node Connection,BUILDING STORY 3 THERMALZONE RETURN AIR NODE,AIRLOOPHVAC:ZONEMIXER,AIR LOOP HVAC ZONE MIXER 4,Inlet,1
 Non-Parent Node Connection,1 ZONE VAV 4 DEMAND OUTLET NODE,AIRLOOPHVAC:ZONEMIXER,AIR LOOP HVAC ZONE MIXER 5,Outlet,1
 Non-Parent Node Connection,BUILDING STORY 5 THERMALZONE RETURN AIR NODE,AIRLOOPHVAC:ZONEMIXER,AIR LOOP HVAC ZONE MIXER 5,Inlet,1
 Non-Parent Node Connection,1 ZONE VAV 5 DEMAND OUTLET NODE,AIRLOOPHVAC:ZONEMIXER,AIR LOOP HVAC ZONE MIXER 6,Outlet,1
 Non-Parent Node Connection,BUILDING STORY 6 THERMALZONE RETURN AIR NODE,AIRLOOPHVAC:ZONEMIXER,AIR LOOP HVAC ZONE MIXER 6,Inlet,1
 Non-Parent Node Connection,1 ZONE VAV MIXED AIR NODE,CONTROLLER:OUTDOORAIR,1 ZONE VAV OA CONTROLLER,Sensor,1
 Non-Parent Node Connection,1 ZONE VAV OUTDOOR AIR NODE,CONTROLLER:OUTDOORAIR,1 ZONE VAV OA CONTROLLER,Actuator,1
 Non-Parent Node Connection,1 ZONE VAV RELIEF AIR NODE,CONTROLLER:OUTDOORAIR,1 ZONE VAV OA CONTROLLER,Actuator,1
 Non-Parent Node Connection,1 ZONE VAV SUPPLY INLET NODE,CONTROLLER:OUTDOORAIR,1 ZONE VAV OA CONTROLLER,Sensor,1
 Non-Parent Node Connection,1 ZONE VAV 1 MIXED AIR NODE,CONTROLLER:OUTDOORAIR,1 ZONE VAV 1 OA CONTROLLER,Sensor,1
 Non-Parent Node Connection,1 ZONE VAV 1 OUTDOOR AIR NODE,CONTROLLER:OUTDOORAIR,1 ZONE VAV 1 OA CONTROLLER,Actuator,1
 Non-Parent Node Connection,1 ZONE VAV 1 RELIEF AIR NODE,CONTROLLER:OUTDOORAIR,1 ZONE VAV 1 OA CONTROLLER,Actuator,1
 Non-Parent Node Connection,1 ZONE VAV 1 SUPPLY INLET NODE,CONTROLLER:OUTDOORAIR,1 ZONE VAV 1 OA CONTROLLER,Sensor,1
 Non-Parent Node Connection,1 ZONE VAV 2 MIXED AIR NODE,CONTROLLER:OUTDOORAIR,1 ZONE VAV 2 OA CONTROLLER,Sensor,1
 Non-Parent Node Connection,1 ZONE VAV 2 OUTDOOR AIR NODE,CONTROLLER:OUTDOORAIR,1 ZONE VAV 2 OA CONTROLLER,Actuator,1
 Non-Parent Node Connection,1 ZONE VAV 2 RELIEF AIR NODE,CONTROLLER:OUTDOORAIR,1 ZONE VAV 2 OA CONTROLLER,Actuator,1
 Non-Parent Node Connection,1 ZONE VAV 2 SUPPLY INLET NODE,CONTROLLER:OUTDOORAIR,1 ZONE VAV 2 OA CONTROLLER,Sensor,1
 Non-Parent Node Connection,1 ZONE VAV 3 MIXED AIR NODE,CONTROLLER:OUTDOORAIR,1 ZONE VAV 3 OA CONTROLLER,Sensor,1
 Non-Parent Node Connection,1 ZONE VAV 3 OUTDOOR AIR NODE,CONTROLLER:OUTDOORAIR,1 ZONE VAV 3 OA CONTROLLER,Actuator,1
 Non-Parent Node Connection,1 ZONE VAV 3 RELIEF AIR NODE,CONTROLLER:OUTDOORAIR,1 ZONE VAV 3 OA CONTROLLER,Actuator,1
 Non-Parent Node Connection,1 ZONE VAV 3 SUPPLY INLET NODE,CONTROLLER:OUTDOORAIR,1 ZONE VAV 3 OA CONTROLLER,Sensor,1
 Non-Parent Node Connection,1 ZONE VAV 4 MIXED AIR NODE,CONTROLLER:OUTDOORAIR,1 ZONE VAV 4 OA CONTROLLER,Sensor,1
 Non-Parent Node Connection,1 ZONE VAV 4 OUTDOOR AIR NODE,CONTROLLER:OUTDOORAIR,1 ZONE VAV 4 OA CONTROLLER,Actuator,1
 Non-Parent Node Connection,1 ZONE VAV 4 RELIEF AIR NODE,CONTROLLER:OUTDOORAIR,1 ZONE VAV 4 OA CONTROLLER,Actuator,1
 Non-Parent Node Connection,1 ZONE VAV 4 SUPPLY INLET NODE,CONTROLLER:OUTDOORAIR,1 ZONE VAV 4 OA CONTROLLER,Sensor,1
 Non-Parent Node Connection,1 ZONE VAV 5 MIXED AIR NODE,CONTROLLER:OUTDOORAIR,1 ZONE VAV 5 OA CONTROLLER,Sensor,1
 Non-Parent Node Connection,1 ZONE VAV 5 OUTDOOR AIR NODE,CONTROLLER:OUTDOORAIR,1 ZONE VAV 5 OA CONTROLLER,Actuator,1
 Non-Parent Node Connection,1 ZONE VAV 5 RELIEF AIR NODE,CONTROLLER:OUTDOORAIR,1 ZONE VAV 5 OA CONTROLLER,Actuator,1
 Non-Parent Node Connection,1 ZONE VAV 5 SUPPLY INLET NODE,CONTROLLER:OUTDOORAIR,1 ZONE VAV 5 OA CONTROLLER,Sensor,1
 Non-Parent Node Connection,90.1-2013 WATERCOOLED  ROTARY SCREW CHILLER 0 SUPPLY INLET WATER NODE,CHILLER:ELECTRIC:EIR,90.1-2013 WATERCOOLED  ROTARY SCREW CHILLER 0,Inlet,1
 Non-Parent Node Connection,90.1-2013 WATERCOOLED  ROTARY SCREW CHILLER 0 SUPPLY OUTLET WATER NODE,CHILLER:ELECTRIC:EIR,90.1-2013 WATERCOOLED  ROTARY SCREW CHILLER 0,Outlet,1
 Non-Parent Node Connection,90.1-2013 WATERCOOLED  ROTARY SCREW CHILLER 0 DEMAND INLET WATER NODE,CHILLER:ELECTRIC:EIR,90.1-2013 WATERCOOLED  ROTARY SCREW CHILLER 0,Inlet,2
 Non-Parent Node Connection,90.1-2013 WATERCOOLED  ROTARY SCREW CHILLER 0 DEMAND OUTLET WATER NODE,CHILLER:ELECTRIC:EIR,90.1-2013 WATERCOOLED  ROTARY SCREW CHILLER 0,Outlet,2
 Non-Parent Node Connection,HX FOR BOOSTER WATER HEATING DEMAND INLET WATER NODE,HEATEXCHANGER:FLUIDTOFLUID,HX FOR BOOSTER WATER HEATING,Inlet,1
 Non-Parent Node Connection,MAINS WATER MAKEUP FOR SWH BOOSTER INLET WATER NODE,HEATEXCHANGER:FLUIDTOFLUID,HX FOR BOOSTER WATER HEATING,Outlet,1
 Non-Parent Node Connection,FULLSERVICERESTAURANT KITCHEN - 90.1-2013 SERVICE WATER BOOSTER LOOP SUPPLY INLET NODE,HEATEXCHANGER:FLUIDTOFLUID,HX FOR BOOSTER WATER HEATING,Inlet,2
 Non-Parent Node Connection,BOOSTER WATER LOOP PUMP INLET WATER NODE,HEATEXCHANGER:FLUIDTOFLUID,HX FOR BOOSTER WATER HEATING,Outlet,2
 Non-Parent Node Connection,FULLSERVICERESTAURANT KITCHEN - 90.1-2013 SERVICE WATER BOOSTER LOOP SUPPLY OUTLET NODE,HEATEXCHANGER:FLUIDTOFLUID,HX FOR BOOSTER WATER HEATING,Sensor,1
 Non-Parent Node Connection,HX FOR BOOSTER WATER HEATING 1 DEMAND INLET WATER NODE,HEATEXCHANGER:FLUIDTOFLUID,HX FOR BOOSTER WATER HEATING 1,Inlet,1
 Non-Parent Node Connection,MAINS WATER MAKEUP FOR SWH BOOSTER 1 INLET WATER NODE,HEATEXCHANGER:FLUIDTOFLUID,HX FOR BOOSTER WATER HEATING 1,Outlet,1
 Non-Parent Node Connection,LARGEHOTEL KITCHEN - 90.1-2013 SERVICE WATER BOOSTER LOOP SUPPLY INLET NODE,HEATEXCHANGER:FLUIDTOFLUID,HX FOR BOOSTER WATER HEATING 1,Inlet,2
 Non-Parent Node Connection,BOOSTER WATER LOOP PUMP 1 INLET WATER NODE,HEATEXCHANGER:FLUIDTOFLUID,HX FOR BOOSTER WATER HEATING 1,Outlet,2
 Non-Parent Node Connection,LARGEHOTEL KITCHEN - 90.1-2013 SERVICE WATER BOOSTER LOOP SUPPLY OUTLET NODE,HEATEXCHANGER:FLUIDTOFLUID,HX FOR BOOSTER WATER HEATING 1,Sensor,1
 Non-Parent Node Connection,MAINS WATER MAKEUP FOR SWH BOOSTER INLET WATER NODE,PLANTCOMPONENT:TEMPERATURESOURCE,MAINS WATER MAKEUP FOR SWH BOOSTER,Inlet,1
 Non-Parent Node Connection,MAINS WATER MAKEUP FOR SWH BOOSTER OUTLET WATER NODE,PLANTCOMPONENT:TEMPERATURESOURCE,MAINS WATER MAKEUP FOR SWH BOOSTER,Outlet,1
 Non-Parent Node Connection,MAINS WATER MAKEUP FOR SWH BOOSTER 1 INLET WATER NODE,PLANTCOMPONENT:TEMPERATURESOURCE,MAINS WATER MAKEUP FOR SWH BOOSTER 1,Inlet,1
 Non-Parent Node Connection,MAINS WATER MAKEUP FOR SWH BOOSTER 1 OUTLET WATER NODE,PLANTCOMPONENT:TEMPERATURESOURCE,MAINS WATER MAKEUP FOR SWH BOOSTER 1,Outlet,1
 Non-Parent Node Connection,PROPELLER OR AXIAL VARIABLE SPEED FAN OPEN COOLING TOWER INLET WATER NODE,COOLINGTOWER:VARIABLESPEED,PROPELLER OR AXIAL VARIABLE SPEED FAN OPEN COOLING TOWER,Inlet,1
 Non-Parent Node Connection,PROPELLER OR AXIAL VARIABLE SPEED FAN OPEN COOLING TOWER OUTLET WATER NODE,COOLINGTOWER:VARIABLESPEED,PROPELLER OR AXIAL VARIABLE SPEED FAN OPEN COOLING TOWER,Outlet,1
 Non-Parent Node Connection,BOILER INLET WATER NODE,BOILER:HOTWATER,BOILER,Inlet,1
 Non-Parent Node Connection,BOILER OUTLET WATER NODE,BOILER:HOTWATER,BOILER,Outlet,1
 Non-Parent Node Connection,CHILLED WATER LOOP SECONDARY PUMP INLET WATER NODE,PUMP:VARIABLESPEED,CHILLED WATER LOOP SECONDARY PUMP,Inlet,1
 Non-Parent Node Connection,CHILLED WATER LOOP SECONDARY PUMP OUTLET WATER NODE,PUMP:VARIABLESPEED,CHILLED WATER LOOP SECONDARY PUMP,Outlet,1
 Non-Parent Node Connection,BOOSTER WATER LOOP PUMP INLET WATER NODE,PUMP:VARIABLESPEED,BOOSTER WATER LOOP PUMP,Inlet,1
 Non-Parent Node Connection,BOOSTER WATER LOOP PUMP OUTLET WATER NODE,PUMP:VARIABLESPEED,BOOSTER WATER LOOP PUMP,Outlet,1
 Non-Parent Node Connection,FULLSERVICERESTAURANT KITCHEN - 90.1-2013 SERVICE WATER LOOP SUPPLY INLET NODE,PUMP:VARIABLESPEED,FULLSERVICERESTAURANT KITCHEN - 90.1-2013 SERVICE WATER LOOP WATER MAINS PRESSURE DRIVEN,Inlet,1
 Non-Parent Node Connection,FULLSERVICERESTAURANT KITCHEN - 90.1-2013 SERVICE WATER LOOP WATER MAINS PRESSURE DRIVEN OUTLET WATER NODE,PUMP:VARIABLESPEED,FULLSERVICERESTAURANT KITCHEN - 90.1-2013 SERVICE WATER LOOP WATER MAINS PRESSURE DRIVEN,Outlet,1
 Non-Parent Node Connection,HOT WATER LOOP SUPPLY INLET NODE,PUMP:VARIABLESPEED,HOT WATER LOOP PUMP,Inlet,1
 Non-Parent Node Connection,HOT WATER LOOP PUMP OUTLET WATER NODE,PUMP:VARIABLESPEED,HOT WATER LOOP PUMP,Outlet,1
 Non-Parent Node Connection,BOOSTER WATER LOOP PUMP 1 INLET WATER NODE,PUMP:VARIABLESPEED,BOOSTER WATER LOOP PUMP 1,Inlet,1
 Non-Parent Node Connection,BOOSTER WATER LOOP PUMP 1 OUTLET WATER NODE,PUMP:VARIABLESPEED,BOOSTER WATER LOOP PUMP 1,Outlet,1
 Non-Parent Node Connection,LARGEHOTEL KITCHEN - 90.1-2013 SERVICE WATER LOOP SUPPLY INLET NODE,PUMP:VARIABLESPEED,LARGEHOTEL KITCHEN - 90.1-2013 SERVICE WATER LOOP WATER MAINS PRESSURE DRIVEN,Inlet,1
 Non-Parent Node Connection,LARGEHOTEL KITCHEN - 90.1-2013 SERVICE WATER LOOP WATER MAINS PRESSURE DRIVEN OUTLET WATER NODE,PUMP:VARIABLESPEED,LARGEHOTEL KITCHEN - 90.1-2013 SERVICE WATER LOOP WATER MAINS PRESSURE DRIVEN,Outlet,1
 Non-Parent Node Connection,LARGEHOTEL LAUNDRY - 90.1-2013 SERVICE WATER LOOP SUPPLY INLET NODE,PUMP:VARIABLESPEED,LARGEHOTEL LAUNDRY - 90.1-2013 SERVICE WATER LOOP WATER MAINS PRESSURE DRIVEN,Inlet,1
 Non-Parent Node Connection,LARGEHOTEL LAUNDRY - 90.1-2013 SERVICE WATER LOOP WATER MAINS PRESSURE DRIVEN OUTLET WATER NODE,PUMP:VARIABLESPEED,LARGEHOTEL LAUNDRY - 90.1-2013 SERVICE WATER LOOP WATER MAINS PRESSURE DRIVEN,Outlet,1
 Non-Parent Node Connection,STRIPMALL STRIP MALL - TYPE 1 - 90.1-2013 SERVICE WATER LOOP SUPPLY INLET NODE,PUMP:VARIABLESPEED,STRIPMALL STRIP MALL - TYPE 1 - 90.1-2013 SERVICE WATER LOOP WATER MAINS PRESSURE DRIVEN,Inlet,1
 Non-Parent Node Connection,STRIPMALL STRIP MALL - TYPE 1 - 90.1-2013 SERVICE WATER LOOP WATER MAINS PRESSURE DRIVEN OUTLET WATER NODE,PUMP:VARIABLESPEED,STRIPMALL STRIP MALL - TYPE 1 - 90.1-2013 SERVICE WATER LOOP WATER MAINS PRESSURE DRIVEN,Outlet,1
 Non-Parent Node Connection,STRIPMALL STRIP MALL - TYPE 2 - 90.1-2013 SERVICE WATER LOOP SUPPLY INLET NODE,PUMP:VARIABLESPEED,STRIPMALL STRIP MALL - TYPE 2 - 90.1-2013 SERVICE WATER LOOP WATER MAINS PRESSURE DRIVEN,Inlet,1
 Non-Parent Node Connection,STRIPMALL STRIP MALL - TYPE 2 - 90.1-2013 SERVICE WATER LOOP WATER MAINS PRESSURE DRIVEN OUTLET WATER NODE,PUMP:VARIABLESPEED,STRIPMALL STRIP MALL - TYPE 2 - 90.1-2013 SERVICE WATER LOOP WATER MAINS PRESSURE DRIVEN,Outlet,1
 Non-Parent Node Connection,STRIPMALL STRIP MALL - TYPE 3 - 90.1-2013 SERVICE WATER LOOP SUPPLY INLET NODE,PUMP:VARIABLESPEED,STRIPMALL STRIP MALL - TYPE 3 - 90.1-2013 SERVICE WATER LOOP WATER MAINS PRESSURE DRIVEN,Inlet,1
 Non-Parent Node Connection,STRIPMALL STRIP MALL - TYPE 3 - 90.1-2013 SERVICE WATER LOOP WATER MAINS PRESSURE DRIVEN OUTLET WATER NODE,PUMP:VARIABLESPEED,STRIPMALL STRIP MALL - TYPE 3 - 90.1-2013 SERVICE WATER LOOP WATER MAINS PRESSURE DRIVEN,Outlet,1
 Non-Parent Node Connection,CHILLED WATER LOOP SUPPLY INLET NODE,PUMP:CONSTANTSPEED,CHILLED WATER LOOP PRIMARY PUMP,Inlet,1
 Non-Parent Node Connection,CHILLED WATER LOOP PRIMARY PUMP OUTLET WATER NODE,PUMP:CONSTANTSPEED,CHILLED WATER LOOP PRIMARY PUMP,Outlet,1
 Non-Parent Node Connection,CONDENSER WATER LOOP SUPPLY INLET NODE,PUMP:CONSTANTSPEED,CONDENSER WATER LOOP CONSTANT PUMP,Inlet,1
 Non-Parent Node Connection,CONDENSER WATER LOOP CONSTANT PUMP OUTLET WATER NODE,PUMP:CONSTANTSPEED,CONDENSER WATER LOOP CONSTANT PUMP,Outlet,1
 Non-Parent Node Connection,LARGEHOTEL SHARED SERVICE WATER LOOP SUPPLY INLET NODE,PUMP:CONSTANTSPEED,LARGEHOTEL SHARED SERVICE WATER LOOP CIRCULATOR PUMP,Inlet,1
 Non-Parent Node Connection,LARGEHOTEL SHARED SERVICE WATER LOOP CIRCULATOR PUMP OUTLET WATER NODE,PUMP:CONSTANTSPEED,LARGEHOTEL SHARED SERVICE WATER LOOP CIRCULATOR PUMP,Outlet,1
 Non-Parent Node Connection,OFFICE SHARED SERVICE WATER LOOP SUPPLY INLET NODE,PUMP:CONSTANTSPEED,OFFICE SHARED SERVICE WATER LOOP CIRCULATOR PUMP,Inlet,1
 Non-Parent Node Connection,OFFICE SHARED SERVICE WATER LOOP CIRCULATOR PUMP OUTLET WATER NODE,PUMP:CONSTANTSPEED,OFFICE SHARED SERVICE WATER LOOP CIRCULATOR PUMP,Outlet,1
