Program Version,EnergyPlus, Version 9.1.0-fafb9d5652, YMD=2020.03.26 13:29
! <Version>, Version ID
 Version, 9.1
! <Timesteps per Hour>, #TimeSteps, Minutes per TimeStep {minutes}
 Timesteps per Hour,  1, 60
! <System Convergence Limits>, Minimum System TimeStep {minutes}, Max HVAC Iterations, Minimum Plant Iterations, Maximum Plant Iterations
 System Convergence Limits, 1, 20, 2, 8
! <Simulation Control>, Do Zone Sizing, Do System Sizing, Do Plant Sizing, Do Design Days, Do Weather Simulation, Do HVAC Sizing Simulation
 Simulation Control, Yes, Yes, Yes, No, Yes, No
! <Output Reporting Tolerances>, Tolerance for Time Heating Setpoint Not Met, Tolerance for Zone Cooling Setpoint Not Met Time
 Output Reporting Tolerances, 0.200, 0.200, 
! <Site:GroundTemperature:BuildingSurface>,Jan{C},Feb{C},Mar{C},Apr{C},May{C},Jun{C},Jul{C},Aug{C},Sep{C},Oct{C},Nov{C},Dec{C}
 Site:GroundTemperature:BuildingSurface,  19.69,  19.64,  19.84,  20.08,  20.32,  21.37,  21.66,  21.71,  21.65,  20.55,  20.21,  19.87
! <Site:GroundTemperature:FCfactorMethod>,Jan{C},Feb{C},Mar{C},Apr{C},May{C},Jun{C},Jul{C},Aug{C},Sep{C},Oct{C},Nov{C},Dec{C}
 Site:GroundTemperature:FCfactorMethod,  -2.87,  -0.64,   3.71,   7.83,  15.62,  19.72,  20.85,  18.77,  13.96,   7.98,   2.08,  -1.81
! <Site:GroundTemperature:Shallow>,Jan{C},Feb{C},Mar{C},Apr{C},May{C},Jun{C},Jul{C},Aug{C},Sep{C},Oct{C},Nov{C},Dec{C}
 Site:GroundTemperature:Shallow,  13.00,  13.00,  13.00,  13.00,  13.00,  13.00,  13.00,  13.00,  13.00,  13.00,  13.00,  13.00
! <Site:GroundTemperature:Deep>,Jan{C},Feb{C},Mar{C},Apr{C},May{C},Jun{C},Jul{C},Aug{C},Sep{C},Oct{C},Nov{C},Dec{C}
 Site:GroundTemperature:Deep,  16.00,  16.00,  16.00,  16.00,  16.00,  16.00,  16.00,  16.00,  16.00,  16.00,  16.00,  16.00
! <Site:GroundReflectance>,Jan{dimensionless},Feb{dimensionless},Mar{dimensionless},Apr{dimensionless},May{dimensionless},Jun{dimensionless},Jul{dimensionless},Aug{dimensionless},Sep{dimensionless},Oct{dimensionless},Nov{dimensionless},Dec{dimensionless}
 Site:GroundReflectance,  0.20,  0.20,  0.20,  0.20,  0.20,  0.20,  0.20,  0.20,  0.20,  0.20,  0.20,  0.20
! <Site:GroundReflectance:SnowModifier>, Normal, Daylighting {dimensionless}
 Site:GroundReflectance:SnowModifier,   1.000,   1.000
! <Site:GroundReflectance:Snow>,Jan{dimensionless},Feb{dimensionless},Mar{dimensionless},Apr{dimensionless},May{dimensionless},Jun{dimensionless},Jul{dimensionless},Aug{dimensionless},Sep{dimensionless},Oct{dimensionless},Nov{dimensionless},Dec{dimensionless}
 Site:GroundReflectance:Snow,  0.20,  0.20,  0.20,  0.20,  0.20,  0.20,  0.20,  0.20,  0.20,  0.20,  0.20,  0.20
! <Site:GroundReflectance:Snow:Daylighting>,Jan{dimensionless},Feb{dimensionless},Mar{dimensionless},Apr{dimensionless},May{dimensionless},Jun{dimensionless},Jul{dimensionless},Aug{dimensionless},Sep{dimensionless},Oct{dimensionless},Nov{dimensionless},Dec{dimensionless}
 Site:GroundReflectance:Snow:Daylighting,  0.20,  0.20,  0.20,  0.20,  0.20,  0.20,  0.20,  0.20,  0.20,  0.20,  0.20,  0.20
! <Environment:Weather Station>,Wind Sensor Height Above Ground {m},Wind Speed Profile Exponent {},Wind Speed Profile Boundary Layer Thickness {m},Air Temperature Sensor Height Above Ground {m},Wind Speed Modifier Coefficient-Internal,Temperature Modifier Coefficient-Internal
Environment:Weather Station,10.000,0.140,270.000,1.500,1.586,9.750E-003
! <Site:Location>, Location Name, Latitude {N+/S- Deg}, Longitude {E+/W- Deg},  Time Zone Number {GMT+/-}, Elevation {m},  Standard Pressure at Elevation {Pa}, Standard RhoAir at Elevation
Site:Location,Buffalo Niagara Intl Ap NY USA TMY3 WMO#=725280,42.93,-78.73,-5.00,215.00,98769,1.1739
! <Site Water Mains Temperature Information>,Calculation Method{},Water Mains Temperature Schedule Name{},Annual Average Outdoor Air Temperature{C},Maximum Difference In Monthly Average Outdoor Air Temperatures{deltaC},Fixed Default Water Mains Temperature{C}
Site Water Mains Temperature Information,Correlation,NA,8.97,26.20,NA
! <Building Information>, Building Name,North Axis {deg},Terrain,  Loads Convergence Tolerance Value,Temperature Convergence Tolerance Value,  Solar Distribution,Maximum Number of Warmup Days,Minimum Number of Warmup Days
 Building Information,Hospital 1,0.000,City,4.00000E-002,0.40000,FullExterior,25,6
! <Inside Convection Algorithm>, Algorithm {Simple | TARP | CeilingDiffuser | AdaptiveConvectionAlgorithm}
Inside Convection Algorithm,TARP
! <Outside Convection Algorithm>, Algorithm {SimpleCombined | TARP | MoWitt | DOE-2 | AdaptiveConvectionAlgorithm}
Outside Convection Algorithm,DOE-2
! <Sky Radiance Distribution>, Value {Anisotropic}
Sky Radiance Distribution,Anisotropic
! <Zone Air Solution Algorithm>, Value {ThirdOrderBackwardDifference | AnalyticalSolution | EulerMethod}
 Zone Air Solution Algorithm, ThirdOrderBackwardDifference
! <Zone Air Carbon Dioxide Balance Simulation>, Simulation {Yes/No}, Carbon Dioxide Concentration
 Zone Air Carbon Dioxide Balance Simulation, No,N/A
! <Zone Air Generic Contaminant Balance Simulation>, Simulation {Yes/No}, Generic Contaminant Concentration
 Zone Air Generic Contaminant Balance Simulation, No,N/A
! <Zone Air Mass Flow Balance Simulation>, Enforce Mass Balance, Adjust Zone Mixing, Adjust Zone Infiltration {AddInfiltration | AdjustInfiltration | None}, Infiltration Zones {MixingSourceZonesOnly | AllZones}
 Zone Air Mass Flow Balance Simulation, No,N/A,N/A,N/A
! <HVACSystemRootFindingAlgorithm>, Value {RegulaFalsi | Bisection | BisectionThenRegulaFalsi | RegulaFalsiThenBisection}
 HVACSystemRootFindingAlgorithm, RegulaFalsi
! <Environment:Site Atmospheric Variation>,Wind Speed Profile Exponent {},Wind Speed Profile Boundary Layer Thickness {m},Air Temperature Gradient Coefficient {K/m}
Environment:Site Atmospheric Variation,0.330,460.000,6.500000E-003
! <Surface Geometry>,Starting Corner,Vertex Input Direction,Coordinate System,Daylight Reference Point Coordinate System,Rectangular (Simple) Surface Coordinate System
 Surface Geometry,UpperLeftCorner,Counterclockwise,RelativeCoordinateSystem,RelativeCoordinateSystem,RelativeToZoneOrigin
! <Surface Heat Transfer Algorithm>, Value {CTF - ConductionTransferFunction | EMPD - MoisturePenetrationDepthConductionTransferFunction | CondFD - ConductionFiniteDifference | HAMT - CombinedHeatAndMoistureFiniteElement} - Description,Inside Surface Max Temperature Limit{C}, Surface Convection Coefficient Lower Limit {W/m2-K}, Surface Convection Coefficient Upper Limit {W/m2-K}
Surface Heat Transfer Algorithm, CTF - ConductionTransferFunction,200,0.10,1000.0
! <Shading Summary>, Number of Fixed Detached Shades, Number of Building Detached Shades, Number of Attached Shades
 Shading Summary,0,64,0
! <Zone Summary>, Number of Zones, Number of Zone Surfaces, Number of SubSurfaces
 Zone Summary,10,140,60
! <Zone Information>,Zone Name,North Axis {deg},Origin X-Coordinate {m},Origin Y-Coordinate {m},Origin Z-Coordinate {m},Centroid X-Coordinate {m},Centroid Y-Coordinate {m},Centroid Z-Coordinate {m},Type,Zone Multiplier,Zone List Multiplier,Minimum X {m},Maximum X {m},Minimum Y {m},Maximum Y {m},Minimum Z {m},Maximum Z {m},Ceiling Height {m},Volume {m3},Zone Inside Convection Algorithm {Simple-Detailed-CeilingDiffuser-TrombeWall},Zone Outside Convection Algorithm {Simple-Detailed-Tarp-MoWitt-DOE-2-BLAST}, Floor Area {m2},Exterior Gross Wall Area {m2},Exterior Net Wall Area {m2},Exterior Window Area {m2}, Number of Surfaces, Number of SubSurfaces, Number of Shading SubSurfaces,  Part of Total Building Area
 Zone Information, BUILDING STORY 1 THERMALZONE,0.0,0.00,0.00,0.00,38.87,47.01,1.50,1,1,1,2.83E-011,85.29,3.99E-005,76.73,0.00,3.00,3.00,11231.53,TARP,DOE-2,3743.84,834.22,583.95,250.27,8,6,0,Yes
 Zone Information, BUILDING STORY 10 THERMALZONE,0.0,0.00,0.00,0.00,38.87,47.01,28.50,1,1,1,2.83E-011,85.29,3.99E-005,76.73,27.00,30.00,3.00,11231.53,TARP,DOE-2,3743.84,834.22,583.95,250.27,8,6,0,Yes
 Zone Information, BUILDING STORY 2 THERMALZONE,0.0,0.00,0.00,0.00,38.87,47.01,4.50,1,1,1,2.83E-011,85.29,3.99E-005,76.73,3.00,6.00,3.00,11231.53,TARP,DOE-2,3743.84,834.22,583.95,250.27,8,6,0,Yes
 Zone Information, BUILDING STORY 3 THERMALZONE,0.0,0.00,0.00,0.00,38.87,47.01,7.50,1,1,1,2.83E-011,85.29,3.99E-005,76.73,6.00,9.00,3.00,11231.53,TARP,DOE-2,3743.84,834.22,583.95,250.27,8,6,0,Yes
 Zone Information, BUILDING STORY 4 THERMALZONE,0.0,0.00,0.00,0.00,38.87,47.01,10.50,1,1,1,2.83E-011,85.29,3.99E-005,76.73,9.00,12.00,3.00,11231.53,TARP,DOE-2,3743.84,834.22,583.95,250.27,8,6,0,Yes
 Zone Information, BUILDING STORY 5 THERMALZONE,0.0,0.00,0.00,0.00,38.87,47.01,13.50,1,1,1,2.83E-011,85.29,3.99E-005,76.73,12.00,15.00,3.00,11231.53,TARP,DOE-2,3743.84,834.22,583.95,250.27,8,6,0,Yes
 Zone Information, BUILDING STORY 6 THERMALZONE,0.0,0.00,0.00,0.00,38.87,47.01,16.50,1,1,1,2.83E-011,85.29,3.99E-005,76.73,15.00,18.00,3.00,11231.53,TARP,DOE-2,3743.84,834.22,583.95,250.27,8,6,0,Yes
 Zone Information, BUILDING STORY 7 THERMALZONE,0.0,0.00,0.00,0.00,38.87,47.01,19.50,1,1,1,2.83E-011,85.29,3.99E-005,76.73,18.00,21.00,3.00,11231.53,TARP,DOE-2,3743.84,834.22,583.95,250.27,8,6,0,Yes
 Zone Information, BUILDING STORY 8 THERMALZONE,0.0,0.00,0.00,0.00,38.87,47.01,22.50,1,1,1,2.83E-011,85.29,3.99E-005,76.73,21.00,24.00,3.00,11231.53,TARP,DOE-2,3743.84,834.22,583.95,250.27,8,6,0,Yes
 Zone Information, BUILDING STORY 9 THERMALZONE,0.0,0.00,0.00,0.00,38.87,47.01,25.50,1,1,1,2.83E-011,85.29,3.99E-005,76.73,24.00,27.00,3.00,11231.53,TARP,DOE-2,3743.84,834.22,583.95,250.27,8,6,0,Yes
! <Zone Internal Gains Nominal>,Zone Name, Floor Area {m2},# Occupants,Area per Occupant {m2/person},Occupant per Area {person/m2},Interior Lighting {W/m2},Electric Load {W/m2},Gas Load {W/m2},Other Load {W/m2},Hot Water Eq {W/m2},Steam Equipment {W/m2},Sum Loads per Area {W/m2},Outdoor Controlled Baseboard Heat
 Zone Internal Gains Nominal, BUILDING STORY 1 THERMALZONE,3743.84,396.2,9.449,0.106,10.325,19.447,0.000,0.000,0.000,0.000,29.772,No
 Zone Internal Gains Nominal, BUILDING STORY 10 THERMALZONE,3743.84,0.0,N/A,0.000,10.764,4.306,0.000,0.000,0.000,0.000,15.069,No
 Zone Internal Gains Nominal, BUILDING STORY 2 THERMALZONE,3743.84,1046.6,3.577,0.280,12.079,184.009,0.000,0.000,0.000,0.000,196.088,No
 Zone Internal Gains Nominal, BUILDING STORY 3 THERMALZONE,3743.84,215.2,17.395,5.749E-002,11.086,4.164,0.000,0.000,0.000,0.000,15.250,No
 Zone Internal Gains Nominal, BUILDING STORY 4 THERMALZONE,3743.84,742.2,5.044,0.198,11.222,49.644,17.295,0.000,0.000,0.000,78.161,No
 Zone Internal Gains Nominal, BUILDING STORY 5 THERMALZONE,3743.84,201.5,18.581,5.382E-002,11.840,11.840,0.000,0.000,0.000,0.000,23.681,No
 Zone Internal Gains Nominal, BUILDING STORY 6 THERMALZONE,3743.84,966.5,3.874,0.258,13.471,18.410,11.133,0.000,0.000,0.000,43.013,No
 Zone Internal Gains Nominal, BUILDING STORY 7 THERMALZONE,3743.84,181.5,20.629,4.848E-002,11.733,11.092,0.000,0.000,0.000,0.000,22.826,No
 Zone Internal Gains Nominal, BUILDING STORY 8 THERMALZONE,3743.84,750.0,4.992,0.200,15.742,11.840,0.000,0.000,0.000,0.000,27.582,No
 Zone Internal Gains Nominal, BUILDING STORY 9 THERMALZONE,3743.84,0.0,N/A,0.000,10.764,4.306,0.000,0.000,0.000,0.000,15.069,No
! <People Internal Gains Nominal>,Name,Schedule Name,Zone Name,Zone Floor Area {m2},# Zone Occupants,Number of People {},People/Floor Area {person/m2},Floor Area per person {m2/person},Fraction Radiant,Fraction Convected,Sensible Fraction Calculation,Activity level,ASHRAE 55 Warnings,Carbon Dioxide Generation Rate,Nominal Minimum Number of People,Nominal Maximum Number of People
 People Internal Gains Nominal, BUILDING STORY 2 THERMALZONE OUTPATIENT ANESTHESIA PEOPLE 1,OUTPATIENTHEALTHCARE BLDG_OCC_SCH,BUILDING STORY 2 THERMALZONE,3743.84,1046.6,22.9,6.113E-003,163.578,0.300,0.700,AutoCalculate,OUTPATIENTHEALTHCARE ACTIVITY_SCH,No,3.8200E-008,0,21
 People Internal Gains Nominal, BUILDING STORY 2 THERMALZONE OUTPATIENT CAFE PEOPLE 1,OUTPATIENTHEALTHCARE BLDG_OCC_SCH,BUILDING STORY 2 THERMALZONE,3743.84,1046.6,452.4,0.121,8.276,0.300,0.700,AutoCalculate,OUTPATIENTHEALTHCARE ACTIVITY_SCH,No,3.8200E-008,0,407
 People Internal Gains Nominal, BUILDING STORY 2 THERMALZONE OUTPATIENT CLEANWORK PEOPLE 1,OUTPATIENTHEALTHCARE BLDG_OCC_SCH,BUILDING STORY 2 THERMALZONE,3743.84,1046.6,62.5,1.669E-002,59.902,0.300,0.700,AutoCalculate,OUTPATIENTHEALTHCARE ACTIVITY_SCH,No,3.8200E-008,0,56
 People Internal Gains Nominal, BUILDING STORY 2 THERMALZONE OUTPATIENT CONFERENCE PEOPLE 1,OUTPATIENTHEALTHCARE BLDG_OCC_SCH,BUILDING STORY 2 THERMALZONE,3743.84,1046.6,180.1,4.810E-002,20.788,0.300,0.700,AutoCalculate,OUTPATIENTHEALTHCARE ACTIVITY_SCH,No,3.8200E-008,0,162
 People Internal Gains Nominal, BUILDING STORY 2 THERMALZONE OUTPATIENT IT_ROOM PEOPLE 1,OUTPATIENTHEALTHCARE BLDG_OCC_SCH,BUILDING STORY 2 THERMALZONE,3743.84,1046.6,5.9,1.586E-003,630.708,0.300,0.700,AutoCalculate,OUTPATIENTHEALTHCARE ACTIVITY_SCH,No,3.8200E-008,0,5
 People Internal Gains Nominal, BUILDING STORY 2 THERMALZONE OUTPATIENT MRI PEOPLE 1,OUTPATIENTHEALTHCARE BLDG_OCC_SCH,BUILDING STORY 2 THERMALZONE,3743.84,1046.6,94.2,2.516E-002,39.748,0.300,0.700,AutoCalculate,OUTPATIENTHEALTHCARE ACTIVITY_SCH,No,3.8200E-008,0,85
 People Internal Gains Nominal, BUILDING STORY 2 THERMALZONE OUTPATIENT MRI_CONTROL PEOPLE 1,OUTPATIENTHEALTHCARE BLDG_OCC_SCH,BUILDING STORY 2 THERMALZONE,3743.84,1046.6,36.1,9.640E-003,103.732,0.300,0.700,AutoCalculate,OUTPATIENTHEALTHCARE ACTIVITY_SCH,No,3.8200E-008,0,32
 People Internal Gains Nominal, BUILDING STORY 2 THERMALZONE OUTPATIENT PREOP PEOPLE 1,OUTPATIENTHEALTHCARE BLDG_OCC_SCH,BUILDING STORY 2 THERMALZONE,3743.84,1046.6,53.4,1.427E-002,70.079,0.300,0.700,AutoCalculate,OUTPATIENTHEALTHCARE ACTIVITY_SCH,No,3.8200E-008,0,48
 People Internal Gains Nominal, BUILDING STORY 2 THERMALZONE OUTPATIENT PROCEDUREROOM PEOPLE 1,OUTPATIENTHEALTHCARE BLDG_OCC_SCH,BUILDING STORY 2 THERMALZONE,3743.84,1046.6,61.6,1.646E-002,60.758,0.300,0.700,AutoCalculate,OUTPATIENTHEALTHCARE ACTIVITY_SCH,No,3.8200E-008,0,55
 People Internal Gains Nominal, BUILDING STORY 2 THERMALZONE OUTPATIENT SOIL WORK PEOPLE 1,OUTPATIENTHEALTHCARE BLDG_OCC_SCH,BUILDING STORY 2 THERMALZONE,3743.84,1046.6,77.5,2.069E-002,48.330,0.300,0.700,AutoCalculate,OUTPATIENTHEALTHCARE ACTIVITY_SCH,No,3.8200E-008,0,70
 People Internal Gains Nominal, BUILDING STORY 1 THERMALZONE OUTPATIENT LOBBY PEOPLE 1,OUTPATIENTHEALTHCARE BLDG_OCC_SCH,BUILDING STORY 1 THERMALZONE,3743.84,396.2,66.8,1.785E-002,56.017,0.300,0.700,AutoCalculate,OUTPATIENTHEALTHCARE ACTIVITY_SCH,No,3.8200E-008,0,60
 People Internal Gains Nominal, BUILDING STORY 1 THERMALZONE OUTPATIENT LOCKERROOM PEOPLE 1,OUTPATIENTHEALTHCARE BLDG_OCC_SCH,BUILDING STORY 1 THERMALZONE,3743.84,396.2,125.4,3.349E-002,29.856,0.300,0.700,AutoCalculate,OUTPATIENTHEALTHCARE ACTIVITY_SCH,No,3.8200E-008,0,113
 People Internal Gains Nominal, BUILDING STORY 1 THERMALZONE OUTPATIENT NURSESTATION PEOPLE 1,OUTPATIENTHEALTHCARE BLDG_OCC_SCH,BUILDING STORY 1 THERMALZONE,3743.84,396.2,166.4,4.444E-002,22.503,0.300,0.700,AutoCalculate,OUTPATIENTHEALTHCARE ACTIVITY_SCH,No,3.8200E-008,0,150
 People Internal Gains Nominal, BUILDING STORY 1 THERMALZONE OUTPATIENT PREOP PEOPLE 2,OUTPATIENTHEALTHCARE BLDG_OCC_SCH,BUILDING STORY 1 THERMALZONE,3743.84,396.2,3.3,8.808E-004,1135.275,0.300,0.700,AutoCalculate,OUTPATIENTHEALTHCARE ACTIVITY_SCH,No,3.8200E-008,0,3
 People Internal Gains Nominal, BUILDING STORY 1 THERMALZONE OUTPATIENT XRAY PEOPLE 1,OUTPATIENTHEALTHCARE BLDG_OCC_SCH,BUILDING STORY 1 THERMALZONE,3743.84,396.2,34.3,9.170E-003,109.052,0.300,0.700,AutoCalculate,OUTPATIENTHEALTHCARE ACTIVITY_SCH,No,3.8200E-008,0,31
 People Internal Gains Nominal, BUILDING STORY 4 THERMALZONE OUTPATIENT LOUNGE PEOPLE 1,OUTPATIENTHEALTHCARE BLDG_OCC_SCH,BUILDING STORY 4 THERMALZONE,3743.84,742.2,193.4,5.165E-002,19.360,0.300,0.700,AutoCalculate,OUTPATIENTHEALTHCARE ACTIVITY_SCH,No,3.8200E-008,0,174
 People Internal Gains Nominal, BUILDING STORY 4 THERMALZONE OUTPATIENT OR PEOPLE 1,OUTPATIENTHEALTHCARE BLDG_OCC_SCH,BUILDING STORY 4 THERMALZONE,3743.84,742.2,185.3,4.949E-002,20.204,0.300,0.700,AutoCalculate,OUTPATIENTHEALTHCARE ACTIVITY_SCH,No,3.8200E-008,0,167
 People Internal Gains Nominal, BUILDING STORY 4 THERMALZONE OUTPATIENT PACU PEOPLE 1,OUTPATIENTHEALTHCARE BLDG_OCC_SCH,BUILDING STORY 4 THERMALZONE,3743.84,742.2,204.2,5.455E-002,18.332,0.300,0.700,AutoCalculate,OUTPATIENTHEALTHCARE ACTIVITY_SCH,No,3.8200E-008,0,184
 People Internal Gains Nominal, BUILDING STORY 4 THERMALZONE OUTPATIENT XRAY PEOPLE 2,OUTPATIENTHEALTHCARE BLDG_OCC_SCH,BUILDING STORY 4 THERMALZONE,3743.84,742.2,159.3,4.256E-002,23.497,0.300,0.700,AutoCalculate,OUTPATIENTHEALTHCARE ACTIVITY_SCH,No,3.8200E-008,0,143
 People Internal Gains Nominal, BUILDING STORY 6 THERMALZONE OUTPATIENT OR PEOPLE 2,OUTPATIENTHEALTHCARE BLDG_OCC_SCH,BUILDING STORY 6 THERMALZONE,3743.84,966.5,119.3,3.186E-002,31.388,0.300,0.700,AutoCalculate,OUTPATIENTHEALTHCARE ACTIVITY_SCH,No,3.8200E-008,0,107
 People Internal Gains Nominal, BUILDING STORY 6 THERMALZONE OUTPATIENT PHYSICALTHERAPY PEOPLE 1,OUTPATIENTHEALTHCARE BLDG_OCC_SCH,BUILDING STORY 6 THERMALZONE,3743.84,966.5,366.2,9.781E-002,10.224,0.300,0.700,AutoCalculate,OUTPATIENTHEALTHCARE ACTIVITY_SCH,No,3.8200E-008,0,330
 People Internal Gains Nominal, BUILDING STORY 6 THERMALZONE OUTPATIENT RECEPTION PEOPLE 1,OUTPATIENTHEALTHCARE BLDG_OCC_SCH,BUILDING STORY 6 THERMALZONE,3743.84,966.5,481.0,0.128,7.784,0.300,0.700,AutoCalculate,OUTPATIENTHEALTHCARE ACTIVITY_SCH,No,3.8200E-008,0,433
 People Internal Gains Nominal, BUILDING STORY 3 THERMALZONE OUTPATIENT EXAM PEOPLE 1,OUTPATIENTHEALTHCARE BLDG_OCC_SCH,BUILDING STORY 3 THERMALZONE,3743.84,215.2,174.7,4.667E-002,21.426,0.300,0.700,AutoCalculate,OUTPATIENTHEALTHCARE ACTIVITY_SCH,No,3.8200E-008,0,157
 People Internal Gains Nominal, BUILDING STORY 3 THERMALZONE OUTPATIENT PHYSICALTHERAPY PEOPLE 2,OUTPATIENTHEALTHCARE BLDG_OCC_SCH,BUILDING STORY 3 THERMALZONE,3743.84,215.2,40.5,1.082E-002,92.457,0.300,0.700,AutoCalculate,OUTPATIENTHEALTHCARE ACTIVITY_SCH,No,3.8200E-008,0,36
 People Internal Gains Nominal, BUILDING STORY 8 THERMALZONE OUTPATIENT EXAM PEOPLE 2,OUTPATIENTHEALTHCARE BLDG_OCC_SCH,BUILDING STORY 8 THERMALZONE,3743.84,750.0,731.1,0.195,5.121,0.300,0.700,AutoCalculate,OUTPATIENTHEALTHCARE ACTIVITY_SCH,No,3.8200E-008,0,658
 People Internal Gains Nominal, BUILDING STORY 8 THERMALZONE OUTPATIENT OFFICE PEOPLE 1,OUTPATIENTHEALTHCARE BLDG_OCC_SCH,BUILDING STORY 8 THERMALZONE,3743.84,750.0,18.9,5.050E-003,198.013,0.300,0.700,AutoCalculate,OUTPATIENTHEALTHCARE ACTIVITY_SCH,No,3.8200E-008,0,17
 People Internal Gains Nominal, BUILDING STORY 5 THERMALZONE OUTPATIENT OFFICE PEOPLE 2,OUTPATIENTHEALTHCARE BLDG_OCC_SCH,BUILDING STORY 5 THERMALZONE,3743.84,201.5,201.5,5.382E-002,18.581,0.300,0.700,AutoCalculate,OUTPATIENTHEALTHCARE ACTIVITY_SCH,No,3.8200E-008,0,181
 People Internal Gains Nominal, BUILDING STORY 7 THERMALZONE OUTPATIENT OFFICE PEOPLE 3,OUTPATIENTHEALTHCARE BLDG_OCC_SCH,BUILDING STORY 7 THERMALZONE,3743.84,181.5,181.5,4.848E-002,20.629,0.300,0.700,AutoCalculate,OUTPATIENTHEALTHCARE ACTIVITY_SCH,No,3.8200E-008,0,163
! <Lights Internal Gains Nominal>,Name,Schedule Name,Zone Name,Zone Floor Area {m2},# Zone Occupants,Lighting Level {W},Lights/Floor Area {W/m2},Lights per person {W/person},Fraction Return Air,Fraction Radiant,Fraction Short Wave,Fraction Convected,Fraction Replaceable,End-Use Category,Nominal Minimum Lighting Level {W},Nominal Maximum Lighting Level {W}
 Lights Internal Gains Nominal, BUILDING STORY 2 THERMALZONE OUTPATIENT ANESTHESIA LIGHTS 1,OUTPATIENTHEALTHCARE BLDG_LIGHT_SCH,BUILDING STORY 2 THERMALZONE,3743.84,1046.6,1714.826,0.458,1.638,0.000,0.700,0.200,0.100,1.000,General,85.741,1543.343
 Lights Internal Gains Nominal, BUILDING STORY 2 THERMALZONE OUTPATIENT BIOHAZARD LIGHTS 1,OUTPATIENTHEALTHCARE BLDG_LIGHT_SCH,BUILDING STORY 2 THERMALZONE,3743.84,1046.6,554.021,0.148,0.529,0.000,0.700,0.200,0.100,1.000,General,27.701,498.619
 Lights Internal Gains Nominal, BUILDING STORY 2 THERMALZONE OUTPATIENT CAFE LIGHTS 1,OUTPATIENTHEALTHCARE BLDG_LIGHT_SCH,BUILDING STORY 2 THERMALZONE,3743.84,1046.6,4076.008,1.089,3.895,0.000,0.700,0.200,0.100,1.000,General,203.800,3668.408
 Lights Internal Gains Nominal, BUILDING STORY 2 THERMALZONE OUTPATIENT CLEANWORK LIGHTS 1,OUTPATIENTHEALTHCARE BLDG_LIGHT_SCH,BUILDING STORY 2 THERMALZONE,3743.84,1046.6,4682.793,1.251,4.474,0.000,0.700,0.200,0.100,1.000,General,234.140,4214.514
 Lights Internal Gains Nominal, BUILDING STORY 2 THERMALZONE OUTPATIENT CONFERENCE LIGHTS 1,OUTPATIENTHEALTHCARE BLDG_LIGHT_SCH,BUILDING STORY 2 THERMALZONE,3743.84,1046.6,4687.190,1.252,4.478,0.000,0.700,0.200,0.100,1.000,General,234.359,4218.471
 Lights Internal Gains Nominal, BUILDING STORY 2 THERMALZONE OUTPATIENT ELEC/MECHROOM LIGHTS 1,OUTPATIENTHEALTHCARE BLDG_LIGHT_STORAGE_SCH,BUILDING STORY 2 THERMALZONE,3743.84,1046.6,7189.076,1.920,6.869,0.000,0.700,0.200,0.100,1.000,General,359.454,6470.169
 Lights Internal Gains Nominal, BUILDING STORY 2 THERMALZONE OUTPATIENT IT_ROOM LIGHTS 1,OUTPATIENTHEALTHCARE BLDG_LIGHT_SCH,BUILDING STORY 2 THERMALZONE,3743.84,1046.6,1305.906,0.349,1.248,0.000,0.700,0.200,0.100,1.000,General,65.295,1175.315
 Lights Internal Gains Nominal, BUILDING STORY 2 THERMALZONE OUTPATIENT MEDGAS LIGHTS 1,OUTPATIENTHEALTHCARE BLDG_LIGHT_SCH,BUILDING STORY 2 THERMALZONE,3743.84,1046.6,554.021,0.148,0.529,0.000,0.700,0.200,0.100,1.000,General,27.701,498.619
 Lights Internal Gains Nominal, BUILDING STORY 2 THERMALZONE OUTPATIENT MRI LIGHTS 1,OUTPATIENTHEALTHCARE BLDG_LIGHT_SCH,BUILDING STORY 2 THERMALZONE,3743.84,1046.6,1881.911,0.503,1.798,0.000,0.700,0.200,0.100,1.000,General,94.096,1693.720
 Lights Internal Gains Nominal, BUILDING STORY 2 THERMALZONE OUTPATIENT MRI_CONTROL LIGHTS 1,OUTPATIENTHEALTHCARE BLDG_LIGHT_SCH,BUILDING STORY 2 THERMALZONE,3743.84,1046.6,721.106,0.193,0.689,0.000,0.700,0.200,0.100,1.000,General,36.055,648.996
 Lights Internal Gains Nominal, BUILDING STORY 2 THERMALZONE OUTPATIENT PREOP LIGHTS 1,OUTPATIENTHEALTHCARE BLDG_LIGHT_EXAM_SCH,BUILDING STORY 2 THERMALZONE,3743.84,1046.6,3739.639,0.999,3.573,0.000,0.700,0.200,0.100,1.000,General,186.982,3365.675
 Lights Internal Gains Nominal, BUILDING STORY 2 THERMALZONE OUTPATIENT PROCEDUREROOM LIGHTS 1,OUTPATIENTHEALTHCARE BLDG_LIGHT_EXAM_SCH,BUILDING STORY 2 THERMALZONE,3743.84,1046.6,8310.309,2.220,7.940,0.000,0.700,0.200,0.100,1.000,General,415.515,7479.278
 Lights Internal Gains Nominal, BUILDING STORY 2 THERMALZONE OUTPATIENT SOIL WORK LIGHTS 1,OUTPATIENTHEALTHCARE BLDG_LIGHT_EXAM_SCH,BUILDING STORY 2 THERMALZONE,3743.84,1046.6,5804.025,1.550,5.546,0.000,0.700,0.200,0.100,1.000,General,290.201,5223.623
 Lights Internal Gains Nominal, BUILDING STORY 1 THERMALZONE OUTPATIENT LOBBY LIGHTS 1,OUTPATIENTHEALTHCARE BLDG_LIGHT_SCH,BUILDING STORY 1 THERMALZONE,3743.84,396.2,8688.450,2.321,21.928,0.000,0.700,0.200,0.100,1.000,General,434.422,7819.605
 Lights Internal Gains Nominal, BUILDING STORY 1 THERMALZONE OUTPATIENT LOCKERROOM LIGHTS 1,OUTPATIENTHEALTHCARE BLDG_LIGHT_SCH,BUILDING STORY 1 THERMALZONE,3743.84,396.2,6683.423,1.785,16.867,0.000,0.700,0.200,0.100,1.000,General,334.171,6015.080
 Lights Internal Gains Nominal, BUILDING STORY 1 THERMALZONE OUTPATIENT NURSESTATION LIGHTS 1,OUTPATIENTHEALTHCARE BLDG_LIGHT_SCH,BUILDING STORY 1 THERMALZONE,3743.84,396.2,8310.309,2.220,20.973,0.000,0.700,0.200,0.100,1.000,General,415.515,7479.278
 Lights Internal Gains Nominal, BUILDING STORY 1 THERMALZONE OUTPATIENT PREOP LIGHTS 2,OUTPATIENTHEALTHCARE BLDG_LIGHT_EXAM_SCH,BUILDING STORY 1 THERMALZONE,3743.84,396.2,230.842,6.166E-002,0.583,0.000,0.700,0.200,0.100,1.000,General,11.542,207.758
 Lights Internal Gains Nominal, BUILDING STORY 1 THERMALZONE OUTPATIENT STAIR LIGHTS 1,OUTPATIENTHEALTHCARE BLDG_LIGHT_CORRIDOR_SCH,BUILDING STORY 1 THERMALZONE,3743.84,396.2,6419.603,1.715,16.202,0.000,0.700,0.200,0.100,1.000,General,320.980,5777.643
 Lights Internal Gains Nominal, BUILDING STORY 1 THERMALZONE OUTPATIENT TOILET LIGHTS 1,OUTPATIENTHEALTHCARE BLDG_LIGHT_SCH,BUILDING STORY 1 THERMALZONE,3743.84,396.2,7637.569,2.040,19.275,0.000,0.700,0.200,0.100,1.000,General,381.878,6873.812
 Lights Internal Gains Nominal, BUILDING STORY 1 THERMALZONE OUTPATIENT XRAY LIGHTS 1,OUTPATIENTHEALTHCARE BLDG_LIGHT_EXAM_SCH,BUILDING STORY 1 THERMALZONE,3743.84,396.2,685.930,0.183,1.731,0.000,0.700,0.200,0.100,1.000,General,34.297,617.337
 Lights Internal Gains Nominal, BUILDING STORY 4 THERMALZONE OUTPATIENT LOUNGE LIGHTS 1,OUTPATIENTHEALTHCARE BLDG_LIGHT_SCH,BUILDING STORY 4 THERMALZONE,3743.84,742.2,10306.541,2.753,13.886,0.000,0.700,0.200,0.100,1.000,General,515.327,9275.887
 Lights Internal Gains Nominal, BUILDING STORY 4 THERMALZONE OUTPATIENT OR LIGHTS 1,OUTPATIENTHEALTHCARE BLDG_LIGHT_EXAM_SCH,BUILDING STORY 4 THERMALZONE,3743.84,742.2,20362.454,5.439,27.434,0.000,0.700,0.200,0.100,1.000,General,1018.123,18326.209
 Lights Internal Gains Nominal, BUILDING STORY 4 THERMALZONE OUTPATIENT PACU LIGHTS 1,OUTPATIENTHEALTHCARE BLDG_LIGHT_EXAM_SCH,BUILDING STORY 4 THERMALZONE,3743.84,742.2,8160.811,2.180,10.995,0.000,0.700,0.200,0.100,1.000,General,408.041,7344.730
 Lights Internal Gains Nominal, BUILDING STORY 4 THERMALZONE OUTPATIENT XRAY LIGHTS 2,OUTPATIENTHEALTHCARE BLDG_LIGHT_EXAM_SCH,BUILDING STORY 4 THERMALZONE,3743.84,742.2,3183.420,0.850,4.289,0.000,0.700,0.200,0.100,1.000,General,159.171,2865.078
 Lights Internal Gains Nominal, BUILDING STORY 6 THERMALZONE OUTPATIENT OR LIGHTS 2,OUTPATIENTHEALTHCARE BLDG_LIGHT_EXAM_SCH,BUILDING STORY 6 THERMALZONE,3743.84,966.5,13107.423,3.501,13.562,0.000,0.700,0.200,0.100,1.000,General,655.371,11796.681
 Lights Internal Gains Nominal, BUILDING STORY 6 THERMALZONE OUTPATIENT PHYSICALTHERAPY LIGHTS 1,OUTPATIENTHEALTHCARE BLDG_LIGHT_EXAM_SCH,BUILDING STORY 6 THERMALZONE,3743.84,966.5,16462.326,4.397,17.034,0.000,0.700,0.200,0.100,1.000,General,823.116,14816.093
 Lights Internal Gains Nominal, BUILDING STORY 6 THERMALZONE OUTPATIENT RECEPTION LIGHTS 1,OUTPATIENTHEALTHCARE BLDG_LIGHT_SCH,BUILDING STORY 6 THERMALZONE,3743.84,966.5,20863.711,5.573,21.588,0.000,0.700,0.200,0.100,1.000,General,1043.186,18777.340
 Lights Internal Gains Nominal, BUILDING STORY 3 THERMALZONE OUTPATIENT EXAM LIGHTS 1,OUTPATIENTHEALTHCARE BLDG_LIGHT_EXAM_SCH,BUILDING STORY 3 THERMALZONE,3743.84,215.2,13092.034,3.497,60.829,0.000,0.700,0.200,0.100,1.000,General,654.602,11782.830
 Lights Internal Gains Nominal, BUILDING STORY 3 THERMALZONE OUTPATIENT JANITOR LIGHTS 1,OUTPATIENTHEALTHCARE BLDG_LIGHT_STORAGE_SCH,BUILDING STORY 3 THERMALZONE,3743.84,215.2,26592.987,7.103,123.557,0.000,0.700,0.200,0.100,1.000,General,1329.649,23933.689
 Lights Internal Gains Nominal, BUILDING STORY 3 THERMALZONE OUTPATIENT PHYSICALTHERAPY LIGHTS 2,OUTPATIENTHEALTHCARE BLDG_LIGHT_EXAM_SCH,BUILDING STORY 3 THERMALZONE,3743.84,215.2,1820.353,0.486,8.458,0.000,0.700,0.200,0.100,1.000,General,91.018,1638.318
 Lights Internal Gains Nominal, BUILDING STORY 8 THERMALZONE OUTPATIENT EXAM LIGHTS 2,OUTPATIENTHEALTHCARE BLDG_LIGHT_EXAM_SCH,BUILDING STORY 8 THERMALZONE,3743.84,750.0,54775.486,14.631,73.036,0.000,0.700,0.200,0.100,1.000,General,2738.774,49297.938
 Lights Internal Gains Nominal, BUILDING STORY 8 THERMALZONE OUTPATIENT OFFICE LIGHTS 1,OUTPATIENTHEALTHCARE BLDG_LIGHT_OFFICE_SCH,BUILDING STORY 8 THERMALZONE,3743.84,750.0,4159.551,1.111,5.546,0.000,0.700,0.200,0.100,1.000,General,207.978,3743.596
 Lights Internal Gains Nominal, BUILDING STORY 5 THERMALZONE OUTPATIENT OFFICE LIGHTS 2,OUTPATIENTHEALTHCARE BLDG_LIGHT_OFFICE_SCH,BUILDING STORY 5 THERMALZONE,3743.84,201.5,44328.241,11.840,220.000,0.000,0.700,0.200,0.100,1.000,General,2216.412,39895.417
 Lights Internal Gains Nominal, BUILDING STORY 7 THERMALZONE OUTPATIENT HALL LIGHTS 1,OUTPATIENTHEALTHCARE BLDG_LIGHT_CORRIDOR_SCH,BUILDING STORY 7 THERMALZONE,3743.84,181.5,4001.260,1.069,22.047,0.000,0.700,0.200,0.100,1.000,General,200.063,3601.134
 Lights Internal Gains Nominal, BUILDING STORY 7 THERMALZONE OUTPATIENT OFFICE LIGHTS 3,OUTPATIENTHEALTHCARE BLDG_LIGHT_OFFICE_SCH,BUILDING STORY 7 THERMALZONE,3743.84,181.5,39926.855,10.665,220.000,0.000,0.700,0.200,0.100,1.000,General,1996.343,35934.170
 Lights Internal Gains Nominal, BUILDING STORY 9 THERMALZONE OUTPATIENT HALL LIGHTS 2,OUTPATIENTHEALTHCARE BLDG_LIGHT_CORRIDOR_SCH,BUILDING STORY 9 THERMALZONE,3743.84,0.0,40298.401,10.764,N/A,0.000,0.700,0.200,0.100,1.000,General,2014.920,36268.561
 Lights Internal Gains Nominal, BUILDING STORY 10 THERMALZONE OUTPATIENT HALL LIGHTS 3,OUTPATIENTHEALTHCARE BLDG_LIGHT_CORRIDOR_SCH,BUILDING STORY 10 THERMALZONE,3743.84,0.0,40298.401,10.764,N/A,0.000,0.700,0.200,0.100,1.000,General,2014.920,36268.561
! <ElectricEquipment Internal Gains Nominal>,Name,Schedule Name,Zone Name,Zone Floor Area {m2},# Zone Occupants,Equipment Level {W},Equipment/Floor Area {W/m2},Equipment per person {W/person},Fraction Latent,Fraction Radiant,Fraction Lost,Fraction Convected,End-Use SubCategory,Nominal Minimum Equipment Level {W},Nominal Maximum Equipment Level {W}
 ElectricEquipment Internal Gains Nominal, BUILDING STORY 2 THERMALZONE 27 ELEVATOR FANS,ELEVATOR SCHEDULE 3,BUILDING STORY 2 THERMALZONE,3743.84,1046.6,2016.500,0.539,1.927,0.000,0.500,0.000,0.500,Elevators,0.000,2016.500
 ElectricEquipment Internal Gains Nominal, BUILDING STORY 2 THERMALZONE 27 ELEVATOR LIFT MOTORS,ELEVATOR SCHEDULE 1,BUILDING STORY 2 THERMALZONE,3743.84,1046.6,549695.376,146.826,525.221,0.000,0.000,1.000,0.000,Elevators,0.000,549695.376
 ElectricEquipment Internal Gains Nominal, BUILDING STORY 2 THERMALZONE 27 ELEVATOR LIGHTS,ELEVATOR SCHEDULE 2,BUILDING STORY 2 THERMALZONE,3743.84,1046.6,2400.595,0.641,2.294,0.000,0.500,0.000,0.500,Elevators,0.000,2400.595
 ElectricEquipment Internal Gains Nominal, BUILDING STORY 2 THERMALZONE OUTPATIENT ANESTHESIA ELEC EQUIP 1,OUTPATIENTHEALTHCARE BLDG_EQUIP_SCH_BASE,BUILDING STORY 2 THERMALZONE,3743.84,1046.6,2286.434,0.611,2.185,0.000,0.500,0.000,0.500,General,685.930,2286.434
 ElectricEquipment Internal Gains Nominal, BUILDING STORY 2 THERMALZONE OUTPATIENT BIOHAZARD ELEC EQUIP 1,OUTPATIENTHEALTHCARE BLDG_EQUIP_SCH_BASE,BUILDING STORY 2 THERMALZONE,3743.84,1046.6,61.558,1.644E-002,5.882E-002,0.000,0.500,0.000,0.500,General,18.467,61.558
 ElectricEquipment Internal Gains Nominal, BUILDING STORY 2 THERMALZONE OUTPATIENT CAFE ELEC EQUIP 1,OUTPATIENTHEALTHCARE BLDG_EQUIP_SCH_BASE,BUILDING STORY 2 THERMALZONE,3743.84,1046.6,4528.898,1.210,4.327,0.000,0.500,0.000,0.500,General,1358.669,4528.898
 ElectricEquipment Internal Gains Nominal, BUILDING STORY 2 THERMALZONE OUTPATIENT CLEANWORK ELEC EQUIP 1,OUTPATIENTHEALTHCARE BLDG_EQUIP_SCH_BASE,BUILDING STORY 2 THERMALZONE,3743.84,1046.6,6243.724,1.668,5.966,0.000,0.500,0.000,0.500,General,1873.117,6243.724
 ElectricEquipment Internal Gains Nominal, BUILDING STORY 2 THERMALZONE OUTPATIENT CONFERENCE ELEC EQUIP 1,OUTPATIENTHEALTHCARE BLDG_EQUIP_SCH_BASE,BUILDING STORY 2 THERMALZONE,3743.84,1046.6,3605.531,0.963,3.445,0.000,0.500,0.000,0.500,General,1081.659,3605.531
 ElectricEquipment Internal Gains Nominal, BUILDING STORY 2 THERMALZONE OUTPATIENT ELEC/MECHROOM ELEC EQUIP 1,OUTPATIENTHEALTHCARE BLDG_EQUIP_SCH_BASE,BUILDING STORY 2 THERMALZONE,3743.84,1046.6,23963.588,6.401,22.897,0.000,0.500,0.000,0.500,General,7189.076,23963.588
 ElectricEquipment Internal Gains Nominal, BUILDING STORY 2 THERMALZONE OUTPATIENT IT_ROOM ELEC EQUIP 1,OUTPATIENTHEALTHCARE BLDG_EQUIP_SCH_BASE,BUILDING STORY 2 THERMALZONE,3743.84,1046.6,1305.906,0.349,1.248,0.000,0.500,0.000,0.500,General,391.772,1305.906
 ElectricEquipment Internal Gains Nominal, BUILDING STORY 2 THERMALZONE OUTPATIENT MEDGAS ELEC EQUIP 1,OUTPATIENTHEALTHCARE BLDG_EQUIP_SCH_BASE,BUILDING STORY 2 THERMALZONE,3743.84,1046.6,61.558,1.644E-002,5.882E-002,0.000,0.500,0.000,0.500,General,18.467,61.558
 ElectricEquipment Internal Gains Nominal, BUILDING STORY 2 THERMALZONE OUTPATIENT MRI ELEC EQUIP 1,OUTPATIENTHEALTHCARE BLDG_EQUIP_SCH_BASE,BUILDING STORY 2 THERMALZONE,3743.84,1046.6,47047.779,12.567,44.953,0.000,0.500,0.000,0.500,General,14114.334,47047.779
 ElectricEquipment Internal Gains Nominal, BUILDING STORY 2 THERMALZONE OUTPATIENT MRI_CONTROL ELEC EQUIP 1,OUTPATIENTHEALTHCARE BLDG_EQUIP_SCH_BASE,BUILDING STORY 2 THERMALZONE,3743.84,1046.6,18027.653,4.815,17.225,0.000,0.500,0.000,0.500,General,5408.296,18027.653
 ElectricEquipment Internal Gains Nominal, BUILDING STORY 2 THERMALZONE OUTPATIENT PREOP ELEC EQUIP 1,OUTPATIENTHEALTHCARE BLDG_EQUIP_SCH_BASE,BUILDING STORY 2 THERMALZONE,3743.84,1046.6,10684.682,2.854,10.209,0.000,0.500,0.000,0.500,General,3205.405,10684.682
 ElectricEquipment Internal Gains Nominal, BUILDING STORY 2 THERMALZONE OUTPATIENT PROCEDUREROOM ELEC EQUIP 1,OUTPATIENTHEALTHCARE BLDG_EQUIP_SCH_BASE,BUILDING STORY 2 THERMALZONE,3743.84,1046.6,9233.676,2.466,8.823,0.000,0.500,0.000,0.500,General,2770.103,9233.676
 ElectricEquipment Internal Gains Nominal, BUILDING STORY 2 THERMALZONE OUTPATIENT SOIL WORK ELEC EQUIP 1,OUTPATIENTHEALTHCARE BLDG_EQUIP_SCH_BASE,BUILDING STORY 2 THERMALZONE,3743.84,1046.6,7738.700,2.067,7.394,0.000,0.500,0.000,0.500,General,2321.610,7738.700
 ElectricEquipment Internal Gains Nominal, BUILDING STORY 1 THERMALZONE OUTPATIENT LOBBY ELEC EQUIP 1,OUTPATIENTHEALTHCARE BLDG_EQUIP_SCH_BASE,BUILDING STORY 1 THERMALZONE,3743.84,396.2,7351.765,1.964,18.554,0.000,0.500,0.000,0.500,General,2205.530,7351.765
 ElectricEquipment Internal Gains Nominal, BUILDING STORY 1 THERMALZONE OUTPATIENT LOCKERROOM ELEC EQUIP 1,OUTPATIENTHEALTHCARE BLDG_EQUIP_SCH_BASE,BUILDING STORY 1 THERMALZONE,3743.84,396.2,25062.835,6.694,63.253,0.000,0.500,0.000,0.500,General,7518.851,25062.835
 ElectricEquipment Internal Gains Nominal, BUILDING STORY 1 THERMALZONE OUTPATIENT NURSESTATION ELEC EQUIP 1,OUTPATIENTHEALTHCARE BLDG_EQUIP_SCH_BASE,BUILDING STORY 1 THERMALZONE,3743.84,396.2,16620.617,4.439,41.947,0.000,0.500,0.000,0.500,General,4986.185,16620.617
 ElectricEquipment Internal Gains Nominal, BUILDING STORY 1 THERMALZONE OUTPATIENT PREOP ELEC EQUIP 2,OUTPATIENTHEALTHCARE BLDG_EQUIP_SCH_BASE,BUILDING STORY 1 THERMALZONE,3743.84,396.2,659.548,0.176,1.665,0.000,0.500,0.000,0.500,General,197.864,659.548
 ElectricEquipment Internal Gains Nominal, BUILDING STORY 1 THERMALZONE OUTPATIENT STAIR ELEC EQUIP 1,OUTPATIENTHEALTHCARE BLDG_EQUIP_SCH_BASE,BUILDING STORY 1 THERMALZONE,3743.84,396.2,2567.841,0.686,6.481,0.000,0.500,0.000,0.500,General,770.352,2567.841
 ElectricEquipment Internal Gains Nominal, BUILDING STORY 1 THERMALZONE OUTPATIENT TOILET ELEC EQUIP 1,OUTPATIENTHEALTHCARE BLDG_EQUIP_SCH_BASE,BUILDING STORY 1 THERMALZONE,3743.84,396.2,3394.475,0.907,8.567,0.000,0.300,0.700,0.000,General,1018.343,3394.475
 ElectricEquipment Internal Gains Nominal, BUILDING STORY 1 THERMALZONE OUTPATIENT XRAY ELEC EQUIP 1,OUTPATIENTHEALTHCARE BLDG_EQUIP_SCH_BASE,BUILDING STORY 1 THERMALZONE,3743.84,396.2,17148.256,4.580,43.278,0.000,0.500,0.000,0.500,General,5144.477,17148.256
 ElectricEquipment Internal Gains Nominal, BUILDING STORY 4 THERMALZONE OUTPATIENT LOUNGE ELEC EQUIP 1,OUTPATIENTHEALTHCARE BLDG_EQUIP_SCH_BASE,BUILDING STORY 4 THERMALZONE,3743.84,742.2,38649.530,10.323,52.072,0.000,0.500,0.000,0.500,General,11594.859,38649.530
 ElectricEquipment Internal Gains Nominal, BUILDING STORY 4 THERMALZONE OUTPATIENT OR ELEC EQUIP 1,OUTPATIENTHEALTHCARE BLDG_EQUIP_SCH_BASE,BUILDING STORY 4 THERMALZONE,3743.84,742.2,37022.644,9.889,49.880,0.000,0.500,0.000,0.500,General,11106.793,37022.644
 ElectricEquipment Internal Gains Nominal, BUILDING STORY 4 THERMALZONE OUTPATIENT PACU ELEC EQUIP 1,OUTPATIENTHEALTHCARE BLDG_EQUIP_SCH_BASE,BUILDING STORY 4 THERMALZONE,3743.84,742.2,30603.041,8.174,41.231,0.000,0.500,0.000,0.500,General,9180.912,30603.041
 ElectricEquipment Internal Gains Nominal, BUILDING STORY 4 THERMALZONE OUTPATIENT XRAY ELEC EQUIP 2,OUTPATIENTHEALTHCARE BLDG_EQUIP_SCH_BASE,BUILDING STORY 4 THERMALZONE,3743.84,742.2,79585.495,21.258,107.225,0.000,0.500,0.000,0.500,General,23875.648,79585.495
 ElectricEquipment Internal Gains Nominal, BUILDING STORY 6 THERMALZONE OUTPATIENT OR ELEC EQUIP 2,OUTPATIENTHEALTHCARE BLDG_EQUIP_SCH_BASE,BUILDING STORY 6 THERMALZONE,3743.84,966.5,23831.679,6.366,24.659,0.000,0.500,0.000,0.500,General,7149.504,23831.679
 ElectricEquipment Internal Gains Nominal, BUILDING STORY 6 THERMALZONE OUTPATIENT PHYSICALTHERAPY ELEC EQUIP 1,OUTPATIENTHEALTHCARE BLDG_EQUIP_SCH_BASE,BUILDING STORY 6 THERMALZONE,3743.84,966.5,27437.209,7.329,28.389,0.000,0.500,0.000,0.500,General,8231.163,27437.209
 ElectricEquipment Internal Gains Nominal, BUILDING STORY 6 THERMALZONE OUTPATIENT RECEPTION ELEC EQUIP 1,OUTPATIENTHEALTHCARE BLDG_EQUIP_SCH_BASE,BUILDING STORY 6 THERMALZONE,3743.84,966.5,17653.909,4.715,18.267,0.000,0.500,0.000,0.500,General,5296.173,17653.909
 ElectricEquipment Internal Gains Nominal, BUILDING STORY 3 THERMALZONE OUTPATIENT EXAM ELEC EQUIP 1,OUTPATIENTHEALTHCARE BLDG_EQUIP_SCH_BASE,BUILDING STORY 3 THERMALZONE,3743.84,215.2,9600.825,2.564,44.608,0.000,0.500,0.000,0.500,General,2880.247,9600.825
 ElectricEquipment Internal Gains Nominal, BUILDING STORY 3 THERMALZONE OUTPATIENT JANITOR ELEC EQUIP 1,OUTPATIENTHEALTHCARE BLDG_EQUIP_SCH_BASE,BUILDING STORY 3 THERMALZONE,3743.84,215.2,2954.776,0.789,13.729,0.000,0.300,0.700,0.000,General,886.433,2954.776
 ElectricEquipment Internal Gains Nominal, BUILDING STORY 3 THERMALZONE OUTPATIENT PHYSICALTHERAPY ELEC EQUIP 2,OUTPATIENTHEALTHCARE BLDG_EQUIP_SCH_BASE,BUILDING STORY 3 THERMALZONE,3743.84,215.2,3033.922,0.810,14.096,0.000,0.500,0.000,0.500,General,910.177,3033.922
 ElectricEquipment Internal Gains Nominal, BUILDING STORY 8 THERMALZONE OUTPATIENT EXAM ELEC EQUIP 2,OUTPATIENTHEALTHCARE BLDG_EQUIP_SCH_BASE,BUILDING STORY 8 THERMALZONE,3743.84,750.0,40168.690,10.729,53.560,0.000,0.500,0.000,0.500,General,12050.607,40168.690
 ElectricEquipment Internal Gains Nominal, BUILDING STORY 8 THERMALZONE OUTPATIENT OFFICE ELEC EQUIP 1,OUTPATIENTHEALTHCARE BLDG_EQUIP_SCH_BASE,BUILDING STORY 8 THERMALZONE,3743.84,750.0,4159.551,1.111,5.546,0.000,0.500,0.000,0.500,General,1247.865,4159.551
 ElectricEquipment Internal Gains Nominal, BUILDING STORY 5 THERMALZONE OUTPATIENT OFFICE ELEC EQUIP 2,OUTPATIENTHEALTHCARE BLDG_EQUIP_SCH_BASE,BUILDING STORY 5 THERMALZONE,3743.84,201.5,44328.241,11.840,220.000,0.000,0.500,0.000,0.500,General,13298.472,44328.241
 ElectricEquipment Internal Gains Nominal, BUILDING STORY 7 THERMALZONE OUTPATIENT HALL ELEC EQUIP 1,OUTPATIENTHEALTHCARE BLDG_EQUIP_SCH_BASE,BUILDING STORY 7 THERMALZONE,3743.84,181.5,1600.504,0.428,8.819,0.000,0.500,0.000,0.500,General,480.151,1600.504
 ElectricEquipment Internal Gains Nominal, BUILDING STORY 7 THERMALZONE OUTPATIENT OFFICE ELEC EQUIP 3,OUTPATIENTHEALTHCARE BLDG_EQUIP_SCH_BASE,BUILDING STORY 7 THERMALZONE,3743.84,181.5,39926.855,10.665,220.000,0.000,0.500,0.000,0.500,General,11978.057,39926.855
 ElectricEquipment Internal Gains Nominal, BUILDING STORY 9 THERMALZONE OUTPATIENT HALL ELEC EQUIP 2,OUTPATIENTHEALTHCARE BLDG_EQUIP_SCH_BASE,BUILDING STORY 9 THERMALZONE,3743.84,0.0,16119.360,4.306,N/A,0.000,0.500,0.000,0.500,General,4835.808,16119.360
 ElectricEquipment Internal Gains Nominal, BUILDING STORY 10 THERMALZONE OUTPATIENT HALL ELEC EQUIP 3,OUTPATIENTHEALTHCARE BLDG_EQUIP_SCH_BASE,BUILDING STORY 10 THERMALZONE,3743.84,0.0,16119.360,4.306,N/A,0.000,0.500,0.000,0.500,General,4835.808,16119.360
! <GasEquipment Internal Gains Nominal>,Name,Schedule Name,Zone Name,Zone Floor Area {m2},# Zone Occupants,Equipment Level {W},Equipment/Floor Area {W/m2},Equipment per person {W/person},Fraction Latent,Fraction Radiant,Fraction Lost,Fraction Convected,End-Use SubCategory,Nominal Minimum Equipment Level {W},Nominal Maximum Equipment Level {W}
 GasEquipment Internal Gains Nominal, BUILDING STORY 4 THERMALZONE OUTPATIENT OR GAS EQUIP 1,OUTPATIENTHEALTHCARE BLDG_EQUIP_SCH,BUILDING STORY 4 THERMALZONE,3743.84,742.2,64748.963,17.295,87.236,0.000,0.000,0.500,0.500,General,19424.689,64748.963
 GasEquipment Internal Gains Nominal, BUILDING STORY 6 THERMALZONE OUTPATIENT OR GAS EQUIP 2,OUTPATIENTHEALTHCARE BLDG_EQUIP_SCH,BUILDING STORY 6 THERMALZONE,3743.84,966.5,41679.261,11.133,43.126,0.000,0.000,0.500,0.500,General,12503.778,41679.261
! <Shadowing/Sun Position Calculations Annual Simulations>, Calculation Method, Value {days}, Allowable Number Figures in Shadow Overlap {}, Polygon Clipping Algorithm, Sky Diffuse Modeling Algorithm, External Shading Calculation Method, Output External Shading Calculation Results, Disable Self-Shading Within Shading Zone Groups, Disable Self-Shading From Shading Zone Groups to Other Zones
Shadowing/Sun Position Calculations Annual Simulations,AverageOverDaysInFrequency,20,15000,SutherlandHodgman,SimpleSkyDiffuseModeling,InternalCalculation,No,No,No
! <Water Heater Information>,Type,Name,Volume {m3},Maximum Capacity {W},Standard Rated Recovery Efficiency, Standard Rated Energy Factor
! <ZoneInfiltration Airflow Stats Nominal>,Name,Schedule Name,Zone Name, Zone Floor Area {m2}, # Zone Occupants,Design Volume Flow Rate {m3/s},Volume Flow Rate/Floor Area {m3/s-m2},Volume Flow Rate/Exterior Surface Area {m3/s-m2},ACH - Air Changes per Hour,Equation A - Constant Term Coefficient {},Equation B - Temperature Term Coefficient {1/C},Equation C - Velocity Term Coefficient {s/m}, Equation D - Velocity Squared Term Coefficient {s2/m2}
 ZoneInfiltration Airflow Stats Nominal, BUILDING STORY 2 THERMALZONE OUTPATIENT ANESTHESIA A  - STORY GROUND INFILTRATION,ALWAYS ON DISCRETE,BUILDING STORY 2 THERMALZONE,3743.84,1046.6,9.494E-003,2.536E-006,1.138E-005,3.043E-003,0.000,0.000,0.224,0.000
 ZoneInfiltration Airflow Stats Nominal, BUILDING STORY 2 THERMALZONE OUTPATIENT ANESTHESIA C  - STORY GROUND INFILTRATION,ALWAYS ON DISCRETE,BUILDING STORY 2 THERMALZONE,3743.84,1046.6,9.494E-003,2.536E-006,1.138E-005,3.043E-003,0.000,0.000,0.224,0.000
 ZoneInfiltration Airflow Stats Nominal, BUILDING STORY 2 THERMALZONE OUTPATIENT BIOHAZARD A  - STORY GROUND INFILTRATION,ALWAYS ON DISCRETE,BUILDING STORY 2 THERMALZONE,3743.84,1046.6,5.112E-003,1.366E-006,6.128E-006,1.639E-003,0.000,0.000,0.224,0.000
 ZoneInfiltration Airflow Stats Nominal, BUILDING STORY 2 THERMALZONE OUTPATIENT BIOHAZARD C  - STORY GROUND INFILTRATION,ALWAYS ON DISCRETE,BUILDING STORY 2 THERMALZONE,3743.84,1046.6,5.112E-003,1.366E-006,6.128E-006,1.639E-003,0.000,0.000,0.224,0.000
 ZoneInfiltration Airflow Stats Nominal, BUILDING STORY 2 THERMALZONE OUTPATIENT CAFE A  - STORY GROUND INFILTRATION,ALWAYS ON DISCRETE,BUILDING STORY 2 THERMALZONE,3743.84,1046.6,3.761E-002,1.005E-005,4.509E-005,1.206E-002,0.000,0.000,0.224,0.000
 ZoneInfiltration Airflow Stats Nominal, BUILDING STORY 2 THERMALZONE OUTPATIENT CAFE C  - STORY GROUND INFILTRATION,ALWAYS ON DISCRETE,BUILDING STORY 2 THERMALZONE,3743.84,1046.6,3.761E-002,1.005E-005,4.509E-005,1.206E-002,0.000,0.000,0.224,0.000
 ZoneInfiltration Airflow Stats Nominal, BUILDING STORY 2 THERMALZONE OUTPATIENT CLEANWORK A  - STORY GROUND INFILTRATION,ALWAYS ON DISCRETE,BUILDING STORY 2 THERMALZONE,3743.84,1046.6,2.593E-002,6.925E-006,3.108E-005,8.310E-003,0.000,0.000,0.224,0.000
 ZoneInfiltration Airflow Stats Nominal, BUILDING STORY 2 THERMALZONE OUTPATIENT CLEANWORK C  - STORY GROUND INFILTRATION,ALWAYS ON DISCRETE,BUILDING STORY 2 THERMALZONE,3743.84,1046.6,2.593E-002,6.925E-006,3.108E-005,8.310E-003,0.000,0.000,0.224,0.000
 ZoneInfiltration Airflow Stats Nominal, BUILDING STORY 2 THERMALZONE OUTPATIENT CONFERENCE A  - STORY GROUND INFILTRATION,ALWAYS ON DISCRETE,BUILDING STORY 2 THERMALZONE,3743.84,1046.6,2.994E-002,7.998E-006,3.589E-005,9.598E-003,0.000,0.000,0.224,0.000
 ZoneInfiltration Airflow Stats Nominal, BUILDING STORY 2 THERMALZONE OUTPATIENT CONFERENCE C  - STORY GROUND INFILTRATION,ALWAYS ON DISCRETE,BUILDING STORY 2 THERMALZONE,3743.84,1046.6,2.994E-002,7.998E-006,3.589E-005,9.598E-003,0.000,0.000,0.224,0.000
 ZoneInfiltration Airflow Stats Nominal, BUILDING STORY 2 THERMALZONE OUTPATIENT DRESINGROOM A  - STORY GROUND INFILTRATION,ALWAYS ON DISCRETE,BUILDING STORY 2 THERMALZONE,3743.84,1046.6,7.668E-003,2.048E-006,9.192E-006,2.458E-003,0.000,0.000,0.224,0.000
 ZoneInfiltration Airflow Stats Nominal, BUILDING STORY 2 THERMALZONE OUTPATIENT DRESINGROOM C  - STORY GROUND INFILTRATION,ALWAYS ON DISCRETE,BUILDING STORY 2 THERMALZONE,3743.84,1046.6,7.668E-003,2.048E-006,9.192E-006,2.458E-003,0.000,0.000,0.224,0.000
 ZoneInfiltration Airflow Stats Nominal, BUILDING STORY 2 THERMALZONE OUTPATIENT ELEC/MECHROOM A  - STORY GROUND INFILTRATION,ALWAYS ON DISCRETE,BUILDING STORY 2 THERMALZONE,3743.84,1046.6,2.663E-002,7.112E-006,3.192E-005,8.534E-003,0.000,0.000,0.224,0.000
 ZoneInfiltration Airflow Stats Nominal, BUILDING STORY 2 THERMALZONE OUTPATIENT ELEC/MECHROOM A END_B - STORY GROUND INFILTRATION,ALWAYS ON DISCRETE,BUILDING STORY 2 THERMALZONE,3743.84,1046.6,2.635E-002,7.039E-006,3.159E-005,8.447E-003,0.000,0.000,0.224,0.000
 ZoneInfiltration Airflow Stats Nominal, BUILDING STORY 2 THERMALZONE OUTPATIENT ELEC/MECHROOM B END_B - STORY GROUND INFILTRATION,ALWAYS ON DISCRETE,BUILDING STORY 2 THERMALZONE,3743.84,1046.6,6.661E-002,1.779E-005,7.985E-005,2.135E-002,0.000,0.000,0.224,0.000
 ZoneInfiltration Airflow Stats Nominal, BUILDING STORY 2 THERMALZONE OUTPATIENT ELEC/MECHROOM C  - STORY GROUND INFILTRATION,ALWAYS ON DISCRETE,BUILDING STORY 2 THERMALZONE,3743.84,1046.6,2.663E-002,7.112E-006,3.192E-005,8.534E-003,0.000,0.000,0.224,0.000
 ZoneInfiltration Airflow Stats Nominal, BUILDING STORY 2 THERMALZONE OUTPATIENT ELEC/MECHROOM C END_B - STORY GROUND INFILTRATION,ALWAYS ON DISCRETE,BUILDING STORY 2 THERMALZONE,3743.84,1046.6,2.635E-002,7.039E-006,3.159E-005,8.447E-003,0.000,0.000,0.224,0.000
 ZoneInfiltration Airflow Stats Nominal, BUILDING STORY 2 THERMALZONE OUTPATIENT IT_ROOM A  - STORY GROUND INFILTRATION,ALWAYS ON DISCRETE,BUILDING STORY 2 THERMALZONE,3743.84,1046.6,9.859E-003,2.633E-006,1.182E-005,3.160E-003,0.000,0.000,0.224,0.000
 ZoneInfiltration Airflow Stats Nominal, BUILDING STORY 2 THERMALZONE OUTPATIENT IT_ROOM C  - STORY GROUND INFILTRATION,ALWAYS ON DISCRETE,BUILDING STORY 2 THERMALZONE,3743.84,1046.6,9.859E-003,2.633E-006,1.182E-005,3.160E-003,0.000,0.000,0.224,0.000
 ZoneInfiltration Airflow Stats Nominal, BUILDING STORY 2 THERMALZONE OUTPATIENT MEDGAS A  - STORY GROUND INFILTRATION,ALWAYS ON DISCRETE,BUILDING STORY 2 THERMALZONE,3743.84,1046.6,5.112E-003,1.366E-006,6.128E-006,1.639E-003,0.000,0.000,0.224,0.000
 ZoneInfiltration Airflow Stats Nominal, BUILDING STORY 2 THERMALZONE OUTPATIENT MEDGAS C  - STORY GROUND INFILTRATION,ALWAYS ON DISCRETE,BUILDING STORY 2 THERMALZONE,3743.84,1046.6,5.112E-003,1.366E-006,6.128E-006,1.639E-003,0.000,0.000,0.224,0.000
 ZoneInfiltration Airflow Stats Nominal, BUILDING STORY 2 THERMALZONE OUTPATIENT MRI A  - STORY GROUND INFILTRATION,ALWAYS ON DISCRETE,BUILDING STORY 2 THERMALZONE,3743.84,1046.6,3.907E-002,1.044E-005,4.684E-005,1.252E-002,0.000,0.000,0.224,0.000
 ZoneInfiltration Airflow Stats Nominal, BUILDING STORY 2 THERMALZONE OUTPATIENT MRI C  - STORY GROUND INFILTRATION,ALWAYS ON DISCRETE,BUILDING STORY 2 THERMALZONE,3743.84,1046.6,3.907E-002,1.044E-005,4.684E-005,1.252E-002,0.000,0.000,0.224,0.000
 ZoneInfiltration Airflow Stats Nominal, BUILDING STORY 2 THERMALZONE OUTPATIENT MRI_CONTROL A  - STORY GROUND INFILTRATION,ALWAYS ON DISCRETE,BUILDING STORY 2 THERMALZONE,3743.84,1046.6,1.497E-002,3.999E-006,1.795E-005,4.799E-003,0.000,0.000,0.224,0.000
 ZoneInfiltration Airflow Stats Nominal, BUILDING STORY 2 THERMALZONE OUTPATIENT MRI_CONTROL C  - STORY GROUND INFILTRATION,ALWAYS ON DISCRETE,BUILDING STORY 2 THERMALZONE,3743.84,1046.6,1.497E-002,3.999E-006,1.795E-005,4.799E-003,0.000,0.000,0.224,0.000
 ZoneInfiltration Airflow Stats Nominal, BUILDING STORY 2 THERMALZONE OUTPATIENT PREOP A  - STORY GROUND INFILTRATION,ALWAYS ON DISCRETE,BUILDING STORY 2 THERMALZONE,3743.84,1046.6,3.119E-002,8.331E-006,3.739E-005,9.997E-003,0.000,0.000,0.224,0.000
 ZoneInfiltration Airflow Stats Nominal, BUILDING STORY 2 THERMALZONE OUTPATIENT PREOP A END_A - STORY GROUND INFILTRATION,ALWAYS ON DISCRETE,BUILDING STORY 2 THERMALZONE,3743.84,1046.6,2.635E-002,7.039E-006,3.159E-005,8.447E-003,0.000,0.000,0.224,0.000
 ZoneInfiltration Airflow Stats Nominal, BUILDING STORY 2 THERMALZONE OUTPATIENT PREOP B END_A - STORY GROUND INFILTRATION,ALWAYS ON DISCRETE,BUILDING STORY 2 THERMALZONE,3743.84,1046.6,6.661E-002,1.779E-005,7.985E-005,2.135E-002,0.000,0.000,0.224,0.000
 ZoneInfiltration Airflow Stats Nominal, BUILDING STORY 2 THERMALZONE OUTPATIENT PREOP C  - STORY GROUND INFILTRATION,ALWAYS ON DISCRETE,BUILDING STORY 2 THERMALZONE,3743.84,1046.6,3.119E-002,8.331E-006,3.739E-005,9.997E-003,0.000,0.000,0.224,0.000
 ZoneInfiltration Airflow Stats Nominal, BUILDING STORY 2 THERMALZONE OUTPATIENT PREOP C END_A - STORY GROUND INFILTRATION,ALWAYS ON DISCRETE,BUILDING STORY 2 THERMALZONE,3743.84,1046.6,2.635E-002,7.039E-006,3.159E-005,8.447E-003,0.000,0.000,0.224,0.000
 ZoneInfiltration Airflow Stats Nominal, BUILDING STORY 2 THERMALZONE OUTPATIENT PROCEDUREROOM A  - STORY GROUND INFILTRATION,ALWAYS ON DISCRETE,BUILDING STORY 2 THERMALZONE,3743.84,1046.6,2.556E-002,6.828E-006,3.064E-005,8.193E-003,0.000,0.000,0.224,0.000
 ZoneInfiltration Airflow Stats Nominal, BUILDING STORY 2 THERMALZONE OUTPATIENT PROCEDUREROOM C  - STORY GROUND INFILTRATION,ALWAYS ON DISCRETE,BUILDING STORY 2 THERMALZONE,3743.84,1046.6,2.556E-002,6.828E-006,3.064E-005,8.193E-003,0.000,0.000,0.224,0.000
 ZoneInfiltration Airflow Stats Nominal, BUILDING STORY 2 THERMALZONE OUTPATIENT SOIL WORK A  - STORY GROUND INFILTRATION,ALWAYS ON DISCRETE,BUILDING STORY 2 THERMALZONE,3743.84,1046.6,3.213E-002,8.583E-006,3.852E-005,1.030E-002,0.000,0.000,0.224,0.000
 ZoneInfiltration Airflow Stats Nominal, BUILDING STORY 2 THERMALZONE OUTPATIENT SOIL WORK C  - STORY GROUND INFILTRATION,ALWAYS ON DISCRETE,BUILDING STORY 2 THERMALZONE,3743.84,1046.6,3.213E-002,8.583E-006,3.852E-005,1.030E-002,0.000,0.000,0.224,0.000
 ZoneInfiltration Airflow Stats Nominal, BUILDING STORY 1 THERMALZONE OUTPATIENT LOBBY A  - STORY MID INFILTRATION,ALWAYS ON DISCRETE,BUILDING STORY 1 THERMALZONE,3743.84,396.2,5.550E-002,1.483E-005,6.653E-005,1.779E-002,0.000,0.000,0.224,0.000
 ZoneInfiltration Airflow Stats Nominal, BUILDING STORY 1 THERMALZONE OUTPATIENT LOBBY C  - STORY MID INFILTRATION,ALWAYS ON DISCRETE,BUILDING STORY 1 THERMALZONE,3743.84,396.2,5.550E-002,1.483E-005,6.653E-005,1.779E-002,0.000,0.000,0.224,0.000
 ZoneInfiltration Airflow Stats Nominal, BUILDING STORY 1 THERMALZONE OUTPATIENT LOCKERROOM A  - STORY MID INFILTRATION,ALWAYS ON DISCRETE,BUILDING STORY 1 THERMALZONE,3743.84,396.2,5.620E-002,1.501E-005,6.737E-005,1.801E-002,0.000,0.000,0.224,0.000
 ZoneInfiltration Airflow Stats Nominal, BUILDING STORY 1 THERMALZONE OUTPATIENT LOCKERROOM A END_B - STORY MID INFILTRATION,ALWAYS ON DISCRETE,BUILDING STORY 1 THERMALZONE,3743.84,396.2,2.635E-002,7.039E-006,3.159E-005,8.447E-003,0.000,0.000,0.224,0.000
 ZoneInfiltration Airflow Stats Nominal, BUILDING STORY 1 THERMALZONE OUTPATIENT LOCKERROOM B END_B - STORY MID INFILTRATION,ALWAYS ON DISCRETE,BUILDING STORY 1 THERMALZONE,3743.84,396.2,6.661E-002,1.779E-005,7.985E-005,2.135E-002,0.000,0.000,0.224,0.000
 ZoneInfiltration Airflow Stats Nominal, BUILDING STORY 1 THERMALZONE OUTPATIENT LOCKERROOM C  - STORY MID INFILTRATION,ALWAYS ON DISCRETE,BUILDING STORY 1 THERMALZONE,3743.84,396.2,5.620E-002,1.501E-005,6.737E-005,1.801E-002,0.000,0.000,0.224,0.000
 ZoneInfiltration Airflow Stats Nominal, BUILDING STORY 1 THERMALZONE OUTPATIENT LOCKERROOM C END_B - STORY MID INFILTRATION,ALWAYS ON DISCRETE,BUILDING STORY 1 THERMALZONE,3743.84,396.2,2.635E-002,7.039E-006,3.159E-005,8.447E-003,0.000,0.000,0.224,0.000
 ZoneInfiltration Airflow Stats Nominal, BUILDING STORY 1 THERMALZONE OUTPATIENT NURSESTATION A  - STORY MID INFILTRATION,ALWAYS ON DISCRETE,BUILDING STORY 1 THERMALZONE,3743.84,396.2,6.902E-002,1.843E-005,8.273E-005,2.212E-002,0.000,0.000,0.224,0.000
 ZoneInfiltration Airflow Stats Nominal, BUILDING STORY 1 THERMALZONE OUTPATIENT NURSESTATION C  - STORY MID INFILTRATION,ALWAYS ON DISCRETE,BUILDING STORY 1 THERMALZONE,3743.84,396.2,6.902E-002,1.843E-005,8.273E-005,2.212E-002,0.000,0.000,0.224,0.000
 ZoneInfiltration Airflow Stats Nominal, BUILDING STORY 1 THERMALZONE OUTPATIENT PREOP A  - STORY MID INFILTRATION,ALWAYS ON DISCRETE,BUILDING STORY 1 THERMALZONE,3743.84,396.2,2.739E-003,7.315E-007,3.283E-006,8.778E-004,0.000,0.000,0.224,0.000
 ZoneInfiltration Airflow Stats Nominal, BUILDING STORY 1 THERMALZONE OUTPATIENT PREOP C  - STORY MID INFILTRATION,ALWAYS ON DISCRETE,BUILDING STORY 1 THERMALZONE,3743.84,396.2,2.739E-003,7.315E-007,3.283E-006,8.778E-004,0.000,0.000,0.224,0.000
 ZoneInfiltration Airflow Stats Nominal, BUILDING STORY 1 THERMALZONE OUTPATIENT STAIR A  - STORY MID INFILTRATION,ALWAYS ON DISCRETE,BUILDING STORY 1 THERMALZONE,3743.84,396.2,5.331E-002,1.424E-005,6.391E-005,1.709E-002,0.000,0.000,0.224,0.000
 ZoneInfiltration Airflow Stats Nominal, BUILDING STORY 1 THERMALZONE OUTPATIENT STAIR C  - STORY MID INFILTRATION,ALWAYS ON DISCRETE,BUILDING STORY 1 THERMALZONE,3743.84,396.2,5.331E-002,1.424E-005,6.391E-005,1.709E-002,0.000,0.000,0.224,0.000
 ZoneInfiltration Airflow Stats Nominal, BUILDING STORY 1 THERMALZONE OUTPATIENT TOILET A  - STORY MID INFILTRATION,ALWAYS ON DISCRETE,BUILDING STORY 1 THERMALZONE,3743.84,396.2,5.730E-002,1.531E-005,6.869E-005,1.837E-002,0.000,0.000,0.224,0.000
 ZoneInfiltration Airflow Stats Nominal, BUILDING STORY 1 THERMALZONE OUTPATIENT TOILET A END_A - STORY MID INFILTRATION,ALWAYS ON DISCRETE,BUILDING STORY 1 THERMALZONE,3743.84,396.2,2.635E-002,7.039E-006,3.159E-005,8.447E-003,0.000,0.000,0.224,0.000
 ZoneInfiltration Airflow Stats Nominal, BUILDING STORY 1 THERMALZONE OUTPATIENT TOILET B END_A - STORY MID INFILTRATION,ALWAYS ON DISCRETE,BUILDING STORY 1 THERMALZONE,3743.84,396.2,6.661E-002,1.779E-005,7.985E-005,2.135E-002,0.000,0.000,0.224,0.000
 ZoneInfiltration Airflow Stats Nominal, BUILDING STORY 1 THERMALZONE OUTPATIENT TOILET C  - STORY MID INFILTRATION,ALWAYS ON DISCRETE,BUILDING STORY 1 THERMALZONE,3743.84,396.2,5.730E-002,1.531E-005,6.869E-005,1.837E-002,0.000,0.000,0.224,0.000
 ZoneInfiltration Airflow Stats Nominal, BUILDING STORY 1 THERMALZONE OUTPATIENT TOILET C END_A - STORY MID INFILTRATION,ALWAYS ON DISCRETE,BUILDING STORY 1 THERMALZONE,3743.84,396.2,2.635E-002,7.039E-006,3.159E-005,8.447E-003,0.000,0.000,0.224,0.000
 ZoneInfiltration Airflow Stats Nominal, BUILDING STORY 1 THERMALZONE OUTPATIENT XRAY A  - STORY MID INFILTRATION,ALWAYS ON DISCRETE,BUILDING STORY 1 THERMALZONE,3743.84,396.2,1.424E-002,3.804E-006,1.707E-005,4.565E-003,0.000,0.000,0.224,0.000
 ZoneInfiltration Airflow Stats Nominal, BUILDING STORY 1 THERMALZONE OUTPATIENT XRAY C  - STORY MID INFILTRATION,ALWAYS ON DISCRETE,BUILDING STORY 1 THERMALZONE,3743.84,396.2,1.424E-002,3.804E-006,1.707E-005,4.565E-003,0.000,0.000,0.224,0.000
 ZoneInfiltration Airflow Stats Nominal, BUILDING STORY 4 THERMALZONE OUTPATIENT LOUNGE A  - STORY MID2 INFILTRATION,ALWAYS ON DISCRETE,BUILDING STORY 4 THERMALZONE,3743.84,742.2,0.515,1.375E-004,1.125E-004,0.165,0.000,0.000,0.224,0.000
 ZoneInfiltration Airflow Stats Nominal, BUILDING STORY 4 THERMALZONE OUTPATIENT LOUNGE A END_A - STORY MID2 INFILTRATION,ALWAYS ON DISCRETE,BUILDING STORY 4 THERMALZONE,3743.84,742.2,0.145,3.863E-005,3.159E-005,4.635E-002,0.000,0.000,0.224,0.000
 ZoneInfiltration Airflow Stats Nominal, BUILDING STORY 4 THERMALZONE OUTPATIENT LOUNGE B END_A - STORY MID2 INFILTRATION,ALWAYS ON DISCRETE,BUILDING STORY 4 THERMALZONE,3743.84,742.2,0.366,9.764E-005,7.985E-005,0.117,0.000,0.000,0.224,0.000
 ZoneInfiltration Airflow Stats Nominal, BUILDING STORY 4 THERMALZONE OUTPATIENT LOUNGE C  - STORY MID2 INFILTRATION,ALWAYS ON DISCRETE,BUILDING STORY 4 THERMALZONE,3743.84,742.2,0.515,1.375E-004,1.125E-004,0.165,0.000,0.000,0.224,0.000
 ZoneInfiltration Airflow Stats Nominal, BUILDING STORY 4 THERMALZONE OUTPATIENT LOUNGE C END_A - STORY MID2 INFILTRATION,ALWAYS ON DISCRETE,BUILDING STORY 4 THERMALZONE,3743.84,742.2,0.145,3.863E-005,3.159E-005,4.635E-002,0.000,0.000,0.224,0.000
 ZoneInfiltration Airflow Stats Nominal, BUILDING STORY 4 THERMALZONE OUTPATIENT OR A  - STORY MID2 INFILTRATION,ALWAYS ON DISCRETE,BUILDING STORY 4 THERMALZONE,3743.84,742.2,0.422,1.127E-004,9.214E-005,0.135,0.000,0.000,0.224,0.000
 ZoneInfiltration Airflow Stats Nominal, BUILDING STORY 4 THERMALZONE OUTPATIENT OR C  - STORY MID2 INFILTRATION,ALWAYS ON DISCRETE,BUILDING STORY 4 THERMALZONE,3743.84,742.2,0.422,1.127E-004,9.214E-005,0.135,0.000,0.000,0.224,0.000
 ZoneInfiltration Airflow Stats Nominal, BUILDING STORY 4 THERMALZONE OUTPATIENT PACU A  - STORY MID2 INFILTRATION,ALWAYS ON DISCRETE,BUILDING STORY 4 THERMALZONE,3743.84,742.2,0.393,1.049E-004,8.576E-005,0.126,0.000,0.000,0.224,0.000
 ZoneInfiltration Airflow Stats Nominal, BUILDING STORY 4 THERMALZONE OUTPATIENT PACU A END_B - STORY MID2 INFILTRATION,ALWAYS ON DISCRETE,BUILDING STORY 4 THERMALZONE,3743.84,742.2,0.145,3.863E-005,3.159E-005,4.635E-002,0.000,0.000,0.224,0.000
 ZoneInfiltration Airflow Stats Nominal, BUILDING STORY 4 THERMALZONE OUTPATIENT PACU B END_B - STORY MID2 INFILTRATION,ALWAYS ON DISCRETE,BUILDING STORY 4 THERMALZONE,3743.84,742.2,0.366,9.764E-005,7.985E-005,0.117,0.000,0.000,0.224,0.000
 ZoneInfiltration Airflow Stats Nominal, BUILDING STORY 4 THERMALZONE OUTPATIENT PACU C  - STORY MID2 INFILTRATION,ALWAYS ON DISCRETE,BUILDING STORY 4 THERMALZONE,3743.84,742.2,0.393,1.049E-004,8.576E-005,0.126,0.000,0.000,0.224,0.000
 ZoneInfiltration Airflow Stats Nominal, BUILDING STORY 4 THERMALZONE OUTPATIENT PACU C END_B - STORY MID2 INFILTRATION,ALWAYS ON DISCRETE,BUILDING STORY 4 THERMALZONE,3743.84,742.2,0.145,3.863E-005,3.159E-005,4.635E-002,0.000,0.000,0.224,0.000
 ZoneInfiltration Airflow Stats Nominal, BUILDING STORY 4 THERMALZONE OUTPATIENT XRAY A  - STORY MID2 INFILTRATION,ALWAYS ON DISCRETE,BUILDING STORY 4 THERMALZONE,3743.84,742.2,0.363,9.688E-005,7.923E-005,0.116,0.000,0.000,0.224,0.000
 ZoneInfiltration Airflow Stats Nominal, BUILDING STORY 4 THERMALZONE OUTPATIENT XRAY C  - STORY MID2 INFILTRATION,ALWAYS ON DISCRETE,BUILDING STORY 4 THERMALZONE,3743.84,742.2,0.363,9.688E-005,7.923E-005,0.116,0.000,0.000,0.224,0.000
 ZoneInfiltration Airflow Stats Nominal, BUILDING STORY 6 THERMALZONE OUTPATIENT OR A  - STORY MID3 INFILTRATION,ALWAYS ON DISCRETE,BUILDING STORY 6 THERMALZONE,3743.84,966.5,0.272,7.253E-005,5.931E-005,8.703E-002,0.000,0.000,0.224,0.000
 ZoneInfiltration Airflow Stats Nominal, BUILDING STORY 6 THERMALZONE OUTPATIENT OR C  - STORY MID3 INFILTRATION,ALWAYS ON DISCRETE,BUILDING STORY 6 THERMALZONE,3743.84,966.5,0.272,7.253E-005,5.931E-005,8.703E-002,0.000,0.000,0.224,0.000
 ZoneInfiltration Airflow Stats Nominal, BUILDING STORY 6 THERMALZONE OUTPATIENT PHYSICALTHERAPY A  - STORY MID3 INFILTRATION,ALWAYS ON DISCRETE,BUILDING STORY 6 THERMALZONE,3743.84,966.5,0.761,2.034E-004,1.663E-004,0.244,0.000,0.000,0.224,0.000
 ZoneInfiltration Airflow Stats Nominal, BUILDING STORY 6 THERMALZONE OUTPATIENT PHYSICALTHERAPY A END_A - STORY MID3 INFILTRATION,ALWAYS ON DISCRETE,BUILDING STORY 6 THERMALZONE,3743.84,966.5,0.145,3.863E-005,3.159E-005,4.635E-002,0.000,0.000,0.224,0.000
 ZoneInfiltration Airflow Stats Nominal, BUILDING STORY 6 THERMALZONE OUTPATIENT PHYSICALTHERAPY B END_A - STORY MID3 INFILTRATION,ALWAYS ON DISCRETE,BUILDING STORY 6 THERMALZONE,3743.84,966.5,0.366,9.764E-005,7.985E-005,0.117,0.000,0.000,0.224,0.000
 ZoneInfiltration Airflow Stats Nominal, BUILDING STORY 6 THERMALZONE OUTPATIENT PHYSICALTHERAPY C  - STORY MID3 INFILTRATION,ALWAYS ON DISCRETE,BUILDING STORY 6 THERMALZONE,3743.84,966.5,0.761,2.034E-004,1.663E-004,0.244,0.000,0.000,0.224,0.000
 ZoneInfiltration Airflow Stats Nominal, BUILDING STORY 6 THERMALZONE OUTPATIENT PHYSICALTHERAPY C END_A - STORY MID3 INFILTRATION,ALWAYS ON DISCRETE,BUILDING STORY 6 THERMALZONE,3743.84,966.5,0.145,3.863E-005,3.159E-005,4.635E-002,0.000,0.000,0.224,0.000
 ZoneInfiltration Airflow Stats Nominal, BUILDING STORY 6 THERMALZONE OUTPATIENT RECEPTION A  - STORY MID3 INFILTRATION,ALWAYS ON DISCRETE,BUILDING STORY 6 THERMALZONE,3743.84,966.5,0.659,1.761E-004,1.440E-004,0.211,0.000,0.000,0.224,0.000
 ZoneInfiltration Airflow Stats Nominal, BUILDING STORY 6 THERMALZONE OUTPATIENT RECEPTION A END_B - STORY MID3 INFILTRATION,ALWAYS ON DISCRETE,BUILDING STORY 6 THERMALZONE,3743.84,966.5,0.145,3.863E-005,3.159E-005,4.635E-002,0.000,0.000,0.224,0.000
 ZoneInfiltration Airflow Stats Nominal, BUILDING STORY 6 THERMALZONE OUTPATIENT RECEPTION B END_B - STORY MID3 INFILTRATION,ALWAYS ON DISCRETE,BUILDING STORY 6 THERMALZONE,3743.84,966.5,0.366,9.764E-005,7.985E-005,0.117,0.000,0.000,0.224,0.000
 ZoneInfiltration Airflow Stats Nominal, BUILDING STORY 6 THERMALZONE OUTPATIENT RECEPTION C  - STORY MID3 INFILTRATION,ALWAYS ON DISCRETE,BUILDING STORY 6 THERMALZONE,3743.84,966.5,0.659,1.761E-004,1.440E-004,0.211,0.000,0.000,0.224,0.000
 ZoneInfiltration Airflow Stats Nominal, BUILDING STORY 6 THERMALZONE OUTPATIENT RECEPTION C END_B - STORY MID3 INFILTRATION,ALWAYS ON DISCRETE,BUILDING STORY 6 THERMALZONE,3743.84,966.5,0.145,3.863E-005,3.159E-005,4.635E-002,0.000,0.000,0.224,0.000
 ZoneInfiltration Airflow Stats Nominal, BUILDING STORY 3 THERMALZONE OUTPATIENT EXAM A  - STORY MID4 INFILTRATION,ALWAYS ON DISCRETE,BUILDING STORY 3 THERMALZONE,3743.84,215.2,0.325,8.694E-005,7.109E-005,0.104,0.000,0.000,0.224,0.000
 ZoneInfiltration Airflow Stats Nominal, BUILDING STORY 3 THERMALZONE OUTPATIENT EXAM A END_B - STORY MID4 INFILTRATION,ALWAYS ON DISCRETE,BUILDING STORY 3 THERMALZONE,3743.84,215.2,0.145,3.863E-005,3.159E-005,4.635E-002,0.000,0.000,0.224,0.000
 ZoneInfiltration Airflow Stats Nominal, BUILDING STORY 3 THERMALZONE OUTPATIENT EXAM B END_B - STORY MID4 INFILTRATION,ALWAYS ON DISCRETE,BUILDING STORY 3 THERMALZONE,3743.84,215.2,0.366,9.764E-005,7.985E-005,0.117,0.000,0.000,0.224,0.000
 ZoneInfiltration Airflow Stats Nominal, BUILDING STORY 3 THERMALZONE OUTPATIENT EXAM C  - STORY MID4 INFILTRATION,ALWAYS ON DISCRETE,BUILDING STORY 3 THERMALZONE,3743.84,215.2,0.325,8.694E-005,7.109E-005,0.104,0.000,0.000,0.224,0.000
 ZoneInfiltration Airflow Stats Nominal, BUILDING STORY 3 THERMALZONE OUTPATIENT EXAM C END_B - STORY MID4 INFILTRATION,ALWAYS ON DISCRETE,BUILDING STORY 3 THERMALZONE,3743.84,215.2,0.145,3.863E-005,3.159E-005,4.635E-002,0.000,0.000,0.224,0.000
 ZoneInfiltration Airflow Stats Nominal, BUILDING STORY 3 THERMALZONE OUTPATIENT JANITOR A  - STORY MID4 INFILTRATION,ALWAYS ON DISCRETE,BUILDING STORY 3 THERMALZONE,3743.84,215.2,1.274,3.404E-004,2.784E-004,0.408,0.000,0.000,0.224,0.000
 ZoneInfiltration Airflow Stats Nominal, BUILDING STORY 3 THERMALZONE OUTPATIENT JANITOR A END_A - STORY MID4 INFILTRATION,ALWAYS ON DISCRETE,BUILDING STORY 3 THERMALZONE,3743.84,215.2,0.145,3.863E-005,3.159E-005,4.635E-002,0.000,0.000,0.224,0.000
 ZoneInfiltration Airflow Stats Nominal, BUILDING STORY 3 THERMALZONE OUTPATIENT JANITOR B END_A - STORY MID4 INFILTRATION,ALWAYS ON DISCRETE,BUILDING STORY 3 THERMALZONE,3743.84,215.2,0.366,9.764E-005,7.985E-005,0.117,0.000,0.000,0.224,0.000
 ZoneInfiltration Airflow Stats Nominal, BUILDING STORY 3 THERMALZONE OUTPATIENT JANITOR C  - STORY MID4 INFILTRATION,ALWAYS ON DISCRETE,BUILDING STORY 3 THERMALZONE,3743.84,215.2,1.274,3.404E-004,2.784E-004,0.408,0.000,0.000,0.224,0.000
 ZoneInfiltration Airflow Stats Nominal, BUILDING STORY 3 THERMALZONE OUTPATIENT JANITOR C END_A - STORY MID4 INFILTRATION,ALWAYS ON DISCRETE,BUILDING STORY 3 THERMALZONE,3743.84,215.2,0.145,3.863E-005,3.159E-005,4.635E-002,0.000,0.000,0.224,0.000
 ZoneInfiltration Airflow Stats Nominal, BUILDING STORY 3 THERMALZONE OUTPATIENT PHYSICALTHERAPY A  - STORY MID4 INFILTRATION,ALWAYS ON DISCRETE,BUILDING STORY 3 THERMALZONE,3743.84,215.2,9.218E-002,2.462E-005,2.014E-005,2.955E-002,0.000,0.000,0.224,0.000
 ZoneInfiltration Airflow Stats Nominal, BUILDING STORY 3 THERMALZONE OUTPATIENT PHYSICALTHERAPY C  - STORY MID4 INFILTRATION,ALWAYS ON DISCRETE,BUILDING STORY 3 THERMALZONE,3743.84,215.2,9.218E-002,2.462E-005,2.014E-005,2.955E-002,0.000,0.000,0.224,0.000
 ZoneInfiltration Airflow Stats Nominal, BUILDING STORY 8 THERMALZONE OUTPATIENT EXAM A  - STORY MID5 INFILTRATION,ALWAYS ON DISCRETE,BUILDING STORY 8 THERMALZONE,3743.84,750.0,0.290,7.748E-005,3.477E-004,9.298E-002,0.000,0.000,0.224,0.000
 ZoneInfiltration Airflow Stats Nominal, BUILDING STORY 8 THERMALZONE OUTPATIENT EXAM A END_A - STORY MID5 INFILTRATION,ALWAYS ON DISCRETE,BUILDING STORY 8 THERMALZONE,3743.84,750.0,2.635E-002,7.039E-006,3.159E-005,8.447E-003,0.000,0.000,0.224,0.000
 ZoneInfiltration Airflow Stats Nominal, BUILDING STORY 8 THERMALZONE OUTPATIENT EXAM B END_A - STORY MID5 INFILTRATION,ALWAYS ON DISCRETE,BUILDING STORY 8 THERMALZONE,3743.84,750.0,6.661E-002,1.779E-005,7.985E-005,2.135E-002,0.000,0.000,0.224,0.000
 ZoneInfiltration Airflow Stats Nominal, BUILDING STORY 8 THERMALZONE OUTPATIENT EXAM C  - STORY MID5 INFILTRATION,ALWAYS ON DISCRETE,BUILDING STORY 8 THERMALZONE,3743.84,750.0,0.290,7.748E-005,3.477E-004,9.298E-002,0.000,0.000,0.224,0.000
 ZoneInfiltration Airflow Stats Nominal, BUILDING STORY 8 THERMALZONE OUTPATIENT EXAM C END_A - STORY MID5 INFILTRATION,ALWAYS ON DISCRETE,BUILDING STORY 8 THERMALZONE,3743.84,750.0,2.635E-002,7.039E-006,3.159E-005,8.447E-003,0.000,0.000,0.224,0.000
 ZoneInfiltration Airflow Stats Nominal, BUILDING STORY 8 THERMALZONE OUTPATIENT OFFICE A  - STORY MID5 INFILTRATION,ALWAYS ON DISCRETE,BUILDING STORY 8 THERMALZONE,3743.84,750.0,1.823E-002,4.869E-006,2.185E-005,5.842E-003,0.000,0.000,0.224,0.000
 ZoneInfiltration Airflow Stats Nominal, BUILDING STORY 8 THERMALZONE OUTPATIENT OFFICE A END_B - STORY MID5 INFILTRATION,ALWAYS ON DISCRETE,BUILDING STORY 8 THERMALZONE,3743.84,750.0,2.635E-002,7.039E-006,3.159E-005,8.447E-003,0.000,0.000,0.224,0.000
 ZoneInfiltration Airflow Stats Nominal, BUILDING STORY 8 THERMALZONE OUTPATIENT OFFICE B END_B - STORY MID5 INFILTRATION,ALWAYS ON DISCRETE,BUILDING STORY 8 THERMALZONE,3743.84,750.0,6.661E-002,1.779E-005,7.985E-005,2.135E-002,0.000,0.000,0.224,0.000
 ZoneInfiltration Airflow Stats Nominal, BUILDING STORY 8 THERMALZONE OUTPATIENT OFFICE C  - STORY MID5 INFILTRATION,ALWAYS ON DISCRETE,BUILDING STORY 8 THERMALZONE,3743.84,750.0,1.823E-002,4.869E-006,2.185E-005,5.842E-003,0.000,0.000,0.224,0.000
 ZoneInfiltration Airflow Stats Nominal, BUILDING STORY 8 THERMALZONE OUTPATIENT OFFICE C END_B - STORY MID5 INFILTRATION,ALWAYS ON DISCRETE,BUILDING STORY 8 THERMALZONE,3743.84,750.0,2.635E-002,7.039E-006,3.159E-005,8.447E-003,0.000,0.000,0.224,0.000
 ZoneInfiltration Airflow Stats Nominal, BUILDING STORY 5 THERMALZONE OUTPATIENT OFFICE A  - STORY MID6 INFILTRATION,ALWAYS ON DISCRETE,BUILDING STORY 5 THERMALZONE,3743.84,201.5,0.308,8.235E-005,3.696E-004,9.882E-002,0.000,0.000,0.224,0.000
 ZoneInfiltration Airflow Stats Nominal, BUILDING STORY 5 THERMALZONE OUTPATIENT OFFICE A END_A - STORY MID6 INFILTRATION,ALWAYS ON DISCRETE,BUILDING STORY 5 THERMALZONE,3743.84,201.5,2.635E-002,7.039E-006,3.159E-005,8.447E-003,0.000,0.000,0.224,0.000
 ZoneInfiltration Airflow Stats Nominal, BUILDING STORY 5 THERMALZONE OUTPATIENT OFFICE A END_B - STORY MID6 INFILTRATION,ALWAYS ON DISCRETE,BUILDING STORY 5 THERMALZONE,3743.84,201.5,2.635E-002,7.039E-006,3.159E-005,8.447E-003,0.000,0.000,0.224,0.000
 ZoneInfiltration Airflow Stats Nominal, BUILDING STORY 5 THERMALZONE OUTPATIENT OFFICE B END_A - STORY MID6 INFILTRATION,ALWAYS ON DISCRETE,BUILDING STORY 5 THERMALZONE,3743.84,201.5,6.661E-002,1.779E-005,7.985E-005,2.135E-002,0.000,0.000,0.224,0.000
 ZoneInfiltration Airflow Stats Nominal, BUILDING STORY 5 THERMALZONE OUTPATIENT OFFICE B END_B - STORY MID6 INFILTRATION,ALWAYS ON DISCRETE,BUILDING STORY 5 THERMALZONE,3743.84,201.5,6.661E-002,1.779E-005,7.985E-005,2.135E-002,0.000,0.000,0.224,0.000
 ZoneInfiltration Airflow Stats Nominal, BUILDING STORY 5 THERMALZONE OUTPATIENT OFFICE C  - STORY MID6 INFILTRATION,ALWAYS ON DISCRETE,BUILDING STORY 5 THERMALZONE,3743.84,201.5,0.308,8.235E-005,3.696E-004,9.882E-002,0.000,0.000,0.224,0.000
 ZoneInfiltration Airflow Stats Nominal, BUILDING STORY 5 THERMALZONE OUTPATIENT OFFICE C END_A - STORY MID6 INFILTRATION,ALWAYS ON DISCRETE,BUILDING STORY 5 THERMALZONE,3743.84,201.5,2.635E-002,7.039E-006,3.159E-005,8.447E-003,0.000,0.000,0.224,0.000
 ZoneInfiltration Airflow Stats Nominal, BUILDING STORY 5 THERMALZONE OUTPATIENT OFFICE C END_B - STORY MID6 INFILTRATION,ALWAYS ON DISCRETE,BUILDING STORY 5 THERMALZONE,3743.84,201.5,2.635E-002,7.039E-006,3.159E-005,8.447E-003,0.000,0.000,0.224,0.000
 ZoneInfiltration Airflow Stats Nominal, BUILDING STORY 7 THERMALZONE OUTPATIENT HALL A  - STORY MID7 INFILTRATION,ALWAYS ON DISCRETE,BUILDING STORY 7 THERMALZONE,3743.84,181.5,2.005E-002,5.356E-006,2.404E-005,6.428E-003,0.000,0.000,0.224,0.000
 ZoneInfiltration Airflow Stats Nominal, BUILDING STORY 7 THERMALZONE OUTPATIENT HALL A END_B - STORY MID7 INFILTRATION,ALWAYS ON DISCRETE,BUILDING STORY 7 THERMALZONE,3743.84,181.5,2.635E-002,7.039E-006,3.159E-005,8.447E-003,0.000,0.000,0.224,0.000
 ZoneInfiltration Airflow Stats Nominal, BUILDING STORY 7 THERMALZONE OUTPATIENT HALL B END_B - STORY MID7 INFILTRATION,ALWAYS ON DISCRETE,BUILDING STORY 7 THERMALZONE,3743.84,181.5,6.661E-002,1.779E-005,7.985E-005,2.135E-002,0.000,0.000,0.224,0.000
 ZoneInfiltration Airflow Stats Nominal, BUILDING STORY 7 THERMALZONE OUTPATIENT HALL C  - STORY MID7 INFILTRATION,ALWAYS ON DISCRETE,BUILDING STORY 7 THERMALZONE,3743.84,181.5,2.005E-002,5.356E-006,2.404E-005,6.428E-003,0.000,0.000,0.224,0.000
 ZoneInfiltration Airflow Stats Nominal, BUILDING STORY 7 THERMALZONE OUTPATIENT HALL C END_B - STORY MID7 INFILTRATION,ALWAYS ON DISCRETE,BUILDING STORY 7 THERMALZONE,3743.84,181.5,2.635E-002,7.039E-006,3.159E-005,8.447E-003,0.000,0.000,0.224,0.000
 ZoneInfiltration Airflow Stats Nominal, BUILDING STORY 7 THERMALZONE OUTPATIENT OFFICE A  - STORY MID7 INFILTRATION,ALWAYS ON DISCRETE,BUILDING STORY 7 THERMALZONE,3743.84,181.5,0.288,7.700E-005,3.455E-004,9.240E-002,0.000,0.000,0.224,0.000
 ZoneInfiltration Airflow Stats Nominal, BUILDING STORY 7 THERMALZONE OUTPATIENT OFFICE A END_A - STORY MID7 INFILTRATION,ALWAYS ON DISCRETE,BUILDING STORY 7 THERMALZONE,3743.84,181.5,2.635E-002,7.039E-006,3.159E-005,8.447E-003,0.000,0.000,0.224,0.000
 ZoneInfiltration Airflow Stats Nominal, BUILDING STORY 7 THERMALZONE OUTPATIENT OFFICE B END_A - STORY MID7 INFILTRATION,ALWAYS ON DISCRETE,BUILDING STORY 7 THERMALZONE,3743.84,181.5,6.661E-002,1.779E-005,7.985E-005,2.135E-002,0.000,0.000,0.224,0.000
 ZoneInfiltration Airflow Stats Nominal, BUILDING STORY 7 THERMALZONE OUTPATIENT OFFICE C  - STORY MID7 INFILTRATION,ALWAYS ON DISCRETE,BUILDING STORY 7 THERMALZONE,3743.84,181.5,0.288,7.700E-005,3.455E-004,9.240E-002,0.000,0.000,0.224,0.000
 ZoneInfiltration Airflow Stats Nominal, BUILDING STORY 7 THERMALZONE OUTPATIENT OFFICE C END_A - STORY MID7 INFILTRATION,ALWAYS ON DISCRETE,BUILDING STORY 7 THERMALZONE,3743.84,181.5,2.635E-002,7.039E-006,3.159E-005,8.447E-003,0.000,0.000,0.224,0.000
 ZoneInfiltration Airflow Stats Nominal, BUILDING STORY 9 THERMALZONE OUTPATIENT HALL A  - STORY MID8 INFILTRATION,ALWAYS ON DISCRETE,BUILDING STORY 9 THERMALZONE,3743.84,0.0,0.308,8.235E-005,3.696E-004,9.882E-002,0.000,0.000,0.224,0.000
 ZoneInfiltration Airflow Stats Nominal, BUILDING STORY 9 THERMALZONE OUTPATIENT HALL A END_A - STORY MID8 INFILTRATION,ALWAYS ON DISCRETE,BUILDING STORY 9 THERMALZONE,3743.84,0.0,2.635E-002,7.039E-006,3.159E-005,8.447E-003,0.000,0.000,0.224,0.000
 ZoneInfiltration Airflow Stats Nominal, BUILDING STORY 9 THERMALZONE OUTPATIENT HALL A END_B - STORY MID8 INFILTRATION,ALWAYS ON DISCRETE,BUILDING STORY 9 THERMALZONE,3743.84,0.0,2.635E-002,7.039E-006,3.159E-005,8.447E-003,0.000,0.000,0.224,0.000
 ZoneInfiltration Airflow Stats Nominal, BUILDING STORY 9 THERMALZONE OUTPATIENT HALL B END_A - STORY MID8 INFILTRATION,ALWAYS ON DISCRETE,BUILDING STORY 9 THERMALZONE,3743.84,0.0,6.661E-002,1.779E-005,7.985E-005,2.135E-002,0.000,0.000,0.224,0.000
 ZoneInfiltration Airflow Stats Nominal, BUILDING STORY 9 THERMALZONE OUTPATIENT HALL B END_B - STORY MID8 INFILTRATION,ALWAYS ON DISCRETE,BUILDING STORY 9 THERMALZONE,3743.84,0.0,6.661E-002,1.779E-005,7.985E-005,2.135E-002,0.000,0.000,0.224,0.000
 ZoneInfiltration Airflow Stats Nominal, BUILDING STORY 9 THERMALZONE OUTPATIENT HALL C  - STORY MID8 INFILTRATION,ALWAYS ON DISCRETE,BUILDING STORY 9 THERMALZONE,3743.84,0.0,0.308,8.235E-005,3.696E-004,9.882E-002,0.000,0.000,0.224,0.000
 ZoneInfiltration Airflow Stats Nominal, BUILDING STORY 9 THERMALZONE OUTPATIENT HALL C END_A - STORY MID8 INFILTRATION,ALWAYS ON DISCRETE,BUILDING STORY 9 THERMALZONE,3743.84,0.0,2.635E-002,7.039E-006,3.159E-005,8.447E-003,0.000,0.000,0.224,0.000
 ZoneInfiltration Airflow Stats Nominal, BUILDING STORY 9 THERMALZONE OUTPATIENT HALL C END_B - STORY MID8 INFILTRATION,ALWAYS ON DISCRETE,BUILDING STORY 9 THERMALZONE,3743.84,0.0,2.635E-002,7.039E-006,3.159E-005,8.447E-003,0.000,0.000,0.224,0.000
 ZoneInfiltration Airflow Stats Nominal, BUILDING STORY 10 THERMALZONE OUTPATIENT HALL A  - STORY TOP INFILTRATION,ALWAYS ON DISCRETE,BUILDING STORY 10 THERMALZONE,3743.84,0.0,0.329,8.791E-005,7.189E-005,0.105,0.000,0.000,0.224,0.000
 ZoneInfiltration Airflow Stats Nominal, BUILDING STORY 10 THERMALZONE OUTPATIENT HALL A END_A - STORY TOP INFILTRATION,ALWAYS ON DISCRETE,BUILDING STORY 10 THERMALZONE,3743.84,0.0,2.813E-002,7.514E-006,6.144E-006,9.016E-003,0.000,0.000,0.224,0.000
 ZoneInfiltration Airflow Stats Nominal, BUILDING STORY 10 THERMALZONE OUTPATIENT HALL A END_B - STORY TOP INFILTRATION,ALWAYS ON DISCRETE,BUILDING STORY 10 THERMALZONE,3743.84,0.0,2.813E-002,7.514E-006,6.144E-006,9.016E-003,0.000,0.000,0.224,0.000
 ZoneInfiltration Airflow Stats Nominal, BUILDING STORY 10 THERMALZONE OUTPATIENT HALL B END_A - STORY TOP INFILTRATION,ALWAYS ON DISCRETE,BUILDING STORY 10 THERMALZONE,3743.84,0.0,7.110E-002,1.899E-005,1.553E-005,2.279E-002,0.000,0.000,0.224,0.000
 ZoneInfiltration Airflow Stats Nominal, BUILDING STORY 10 THERMALZONE OUTPATIENT HALL B END_B - STORY TOP INFILTRATION,ALWAYS ON DISCRETE,BUILDING STORY 10 THERMALZONE,3743.84,0.0,7.110E-002,1.899E-005,1.553E-005,2.279E-002,0.000,0.000,0.224,0.000
 ZoneInfiltration Airflow Stats Nominal, BUILDING STORY 10 THERMALZONE OUTPATIENT HALL C  - STORY TOP INFILTRATION,ALWAYS ON DISCRETE,BUILDING STORY 10 THERMALZONE,3743.84,0.0,0.329,8.791E-005,7.189E-005,0.105,0.000,0.000,0.224,0.000
 ZoneInfiltration Airflow Stats Nominal, BUILDING STORY 10 THERMALZONE OUTPATIENT HALL C END_A - STORY TOP INFILTRATION,ALWAYS ON DISCRETE,BUILDING STORY 10 THERMALZONE,3743.84,0.0,2.813E-002,7.514E-006,6.144E-006,9.016E-003,0.000,0.000,0.224,0.000
 ZoneInfiltration Airflow Stats Nominal, BUILDING STORY 10 THERMALZONE OUTPATIENT HALL C END_B - STORY TOP INFILTRATION,ALWAYS ON DISCRETE,BUILDING STORY 10 THERMALZONE,3743.84,0.0,2.813E-002,7.514E-006,6.144E-006,9.016E-003,0.000,0.000,0.224,0.000
! <AirFlow Model>, Simple
 AirFlow Model, Simple
! <RoomAir Model>, Zone Name, Mixing/Mundt/UCSDDV/UCSDCV/UCSDUFI/UCSDUFE/User Defined
RoomAir Model,BUILDING STORY 1 THERMALZONE,Mixing/Well-Stirred
RoomAir Model,BUILDING STORY 10 THERMALZONE,Mixing/Well-Stirred
RoomAir Model,BUILDING STORY 2 THERMALZONE,Mixing/Well-Stirred
RoomAir Model,BUILDING STORY 3 THERMALZONE,Mixing/Well-Stirred
RoomAir Model,BUILDING STORY 4 THERMALZONE,Mixing/Well-Stirred
RoomAir Model,BUILDING STORY 5 THERMALZONE,Mixing/Well-Stirred
RoomAir Model,BUILDING STORY 6 THERMALZONE,Mixing/Well-Stirred
RoomAir Model,BUILDING STORY 7 THERMALZONE,Mixing/Well-Stirred
RoomAir Model,BUILDING STORY 8 THERMALZONE,Mixing/Well-Stirred
RoomAir Model,BUILDING STORY 9 THERMALZONE,Mixing/Well-Stirred
! <AirflowNetwork Model:Control>, No Multizone or Distribution/Multizone with Distribution/Multizone without Distribution/Multizone with Distribution only during Fan Operation
AirflowNetwork Model:Control,NoMultizoneOrDistribution
! <Zone Volume Capacitance Multiplier>, Sensible Heat Capacity Multiplier, Moisture Capacity Multiplier, Carbon Dioxide Capacity Multiplier, Generic Contaminant Capacity Multiplier
Zone Volume Capacitance Multiplier,   1.000 ,   1.000,   1.000,   1.000
! <Load Timesteps in Zone Design Calculation Averaging Window>, Value
 Load Timesteps in Zone Design Calculation Averaging Window,    1
! <Heating Sizing Factor Information>, Sizing Factor ID, Value
 Heating Sizing Factor Information, Global,   1.2500    
 Heating Sizing Factor Information, Zone BUILDING STORY 1 THERMALZONE,   1.2500    
 Heating Sizing Factor Information, Zone BUILDING STORY 10 THERMALZONE,   1.2500    
 Heating Sizing Factor Information, Zone BUILDING STORY 2 THERMALZONE,   1.2500    
 Heating Sizing Factor Information, Zone BUILDING STORY 3 THERMALZONE,   1.2500    
 Heating Sizing Factor Information, Zone BUILDING STORY 4 THERMALZONE,   1.2500    
 Heating Sizing Factor Information, Zone BUILDING STORY 5 THERMALZONE,   1.2500    
 Heating Sizing Factor Information, Zone BUILDING STORY 6 THERMALZONE,   1.2500    
 Heating Sizing Factor Information, Zone BUILDING STORY 7 THERMALZONE,   1.2500    
 Heating Sizing Factor Information, Zone BUILDING STORY 8 THERMALZONE,   1.2500    
 Heating Sizing Factor Information, Zone BUILDING STORY 9 THERMALZONE,   1.2500    
! <Cooling Sizing Factor Information>, Sizing Factor ID, Value
 Cooling Sizing Factor Information, Global,   1.1500    
 Cooling Sizing Factor Information, Zone BUILDING STORY 1 THERMALZONE,   1.1500    
 Cooling Sizing Factor Information, Zone BUILDING STORY 10 THERMALZONE,   1.1500    
 Cooling Sizing Factor Information, Zone BUILDING STORY 2 THERMALZONE,   1.1500    
 Cooling Sizing Factor Information, Zone BUILDING STORY 3 THERMALZONE,   1.1500    
 Cooling Sizing Factor Information, Zone BUILDING STORY 4 THERMALZONE,   1.1500    
 Cooling Sizing Factor Information, Zone BUILDING STORY 5 THERMALZONE,   1.1500    
 Cooling Sizing Factor Information, Zone BUILDING STORY 6 THERMALZONE,   1.1500    
 Cooling Sizing Factor Information, Zone BUILDING STORY 7 THERMALZONE,   1.1500    
 Cooling Sizing Factor Information, Zone BUILDING STORY 8 THERMALZONE,   1.1500    
 Cooling Sizing Factor Information, Zone BUILDING STORY 9 THERMALZONE,   1.1500    
! <Zone Sizing Information>, Zone Name, Load Type, Calc Des Load {W}, User Des Load {W}, Calc Des Air Flow Rate {m3/s}, User Des Air Flow Rate {m3/s}, Design Day Name, Date/Time of Peak, Temperature at Peak {C}, Humidity Ratio at Peak {kgWater/kgDryAir}, Floor Area {m2}, # Occupants, Calc Outdoor Air Flow Rate {m3/s}, Calc DOAS Heat Addition Rate {W}
 Zone Sizing Information, BUILDING STORY 1 THERMALZONE, Cooling, 124618.79902, 143311.61887, 11.04545, 12.70227, BUFFALO NIAGARA INTL AP ANN CLG .4% CONDNS DB=>MWB, 7/21 16:00:00, 29.74200, 1.33455E-002, 3743.84396, 396.23287, 3.68922, 0.00000
 Zone Sizing Information, BUILDING STORY 1 THERMALZONE, Heating, 29038.31122, 36297.88903, 1.16699, 3.68922, BUFFALO NIAGARA INTL AP ANN HTG 99.6% CONDNS DB, 1/21 08:00:00, -16.30000, 9.24091E-004, 3743.84396, 396.23287, 3.68922, 0.00000
 Zone Sizing Information, BUILDING STORY 10 THERMALZONE, Cooling, 118630.60621, 136425.19714, 10.51139, 12.08810, BUFFALO NIAGARA INTL AP ANN CLG .4% CONDNS DB=>MWB, 7/21 15:00:00, 30.30000, 1.33455E-002, 3743.84396, 0.00000, 0.95094, 0.00000
 Zone Sizing Information, BUILDING STORY 10 THERMALZONE, Heating, 151404.69622, 189255.87027, 6.48556, 8.10695, BUFFALO NIAGARA INTL AP ANN HTG 99.6% CONDNS DB, 1/21 08:00:00, -16.30000, 9.24091E-004, 3743.84396, 0.00000, 0.95094, 0.00000
 Zone Sizing Information, BUILDING STORY 2 THERMALZONE, Cooling, 277708.83692, 319365.16246, 24.63012, 28.32463, BUFFALO NIAGARA INTL AP ANN CLG .4% CONDNS DB=>MWB, 7/21 17:00:00, 28.99800, 1.33455E-002, 3743.84396, 1046.59894, 10.81828, 0.00000
[...]
 Component Sizing Information, Controller:WaterCoil, 1 ZONE VAV 4 CLG COIL CONTROLLER, Maximum Actuated Flow [m3/s], 3.52211E-002
 Component Sizing Information, Controller:WaterCoil, 1 ZONE VAV 4 CLG COIL CONTROLLER, Controller Convergence Tolerance, 1.35200E-005
 Component Sizing Information, Controller:WaterCoil, 1 ZONE VAV 4 MAIN HTG COIL CONTROLLER, Maximum Actuated Flow [m3/s], 7.58054E-003
 Component Sizing Information, Controller:OutdoorAir, 1 ZONE VAV 5 OA CONTROLLER, Maximum Outdoor Air Flow Rate [m3/s], 13.57191
 Component Sizing Information, Controller:OutdoorAir, 1 ZONE VAV 5 OA CONTROLLER, Minimum Outdoor Air Flow Rate [m3/s], 1.90187
 Component Sizing Information, Coil:Cooling:Water, 1 ZONE VAV 5 CLG COIL, Design Size Design Inlet Air Temperature [C], 23.33696
 Component Sizing Information, Coil:Cooling:Water, 1 ZONE VAV 5 CLG COIL, Design Size Design Inlet Water Temperature [C], 6.66667
 Component Sizing Information, Coil:Cooling:Water, 1 ZONE VAV 5 CLG COIL, Design Size Design Outlet Air Temperature [C], 10.86239
 Component Sizing Information, Coil:Cooling:Water, 1 ZONE VAV 5 CLG COIL, Design Size Design Inlet Air Humidity Ratio, 9.54070E-003
 Component Sizing Information, Coil:Cooling:Water, 1 ZONE VAV 5 CLG COIL, Design Size Design Outlet Air Humidity Ratio, 8.50000E-003
 Component Sizing Information, Coil:Cooling:Water, 1 ZONE VAV 5 CLG COIL, Design Size Design Coil Load [W], 245039.40009
 Component Sizing Information, Coil:Cooling:Water, 1 ZONE VAV 5 CLG COIL, Design Size Design Water Flow Rate [m3/s], 1.04039E-002
 Component Sizing Information, Coil:Cooling:Water, 1 ZONE VAV 5 CLG COIL, Design Size Design Air Flow Rate [m3/s], 13.57191
Water Cooling Coil Capacity Information,Coil:Cooling:Water,1 ZONE VAV 5 CLG COIL,360140.63,244632.00,115508.63,0.68,50098.36,508.13
 Component Sizing Information, Coil:Heating:Water, 1 ZONE VAV 5 MAIN HTG COIL, Design Size Rated Capacity [W], 51119.45877
 Component Sizing Information, Coil:Heating:Water, 1 ZONE VAV 5 MAIN HTG COIL, Design Size Maximum Water Flow Rate [m3/s], 1.11813E-003
 Component Sizing Information, Coil:Heating:Water, 1 ZONE VAV 5 MAIN HTG COIL, Design Size U-Factor Times Area Value [W/K], 771.52568
Water Heating Coil Capacity Information,Coil:Heating:Water,1 ZONE VAV 5 MAIN HTG COIL,41932.87
 Component Sizing Information, Fan:VariableVolume, 1 ZONE VAV 5 FAN, Design Size Maximum Flow Rate [m3/s], 13.57191
 Component Sizing Information, Controller:WaterCoil, 1 ZONE VAV 5 CLG COIL CONTROLLER, Maximum Actuated Flow [m3/s], 1.04039E-002
 Component Sizing Information, Controller:WaterCoil, 1 ZONE VAV 5 CLG COIL CONTROLLER, Controller Convergence Tolerance, 4.57704E-005
 Component Sizing Information, Controller:WaterCoil, 1 ZONE VAV 5 MAIN HTG COIL CONTROLLER, Maximum Actuated Flow [m3/s], 1.11813E-003
 Component Sizing Information, Controller:OutdoorAir, 1 ZONE VAV 6 OA CONTROLLER, Maximum Outdoor Air Flow Rate [m3/s], 29.39889
 Component Sizing Information, Controller:OutdoorAir, 1 ZONE VAV 6 OA CONTROLLER, Minimum Outdoor Air Flow Rate [m3/s], 10.55704
 Component Sizing Information, Coil:Cooling:Water, 1 ZONE VAV 6 CLG COIL, Design Size Design Inlet Air Temperature [C], 25.09760
 Component Sizing Information, Coil:Cooling:Water, 1 ZONE VAV 6 CLG COIL, Design Size Design Inlet Water Temperature [C], 6.66667
 Component Sizing Information, Coil:Cooling:Water, 1 ZONE VAV 6 CLG COIL, Design Size Design Outlet Air Temperature [C], 10.86693
 Component Sizing Information, Coil:Cooling:Water, 1 ZONE VAV 6 CLG COIL, Design Size Design Inlet Air Humidity Ratio, 1.08480E-002
 Component Sizing Information, Coil:Cooling:Water, 1 ZONE VAV 6 CLG COIL, Design Size Design Outlet Air Humidity Ratio, 8.50000E-003
 Component Sizing Information, Coil:Cooling:Water, 1 ZONE VAV 6 CLG COIL, Design Size Design Coil Load [W], 707712.37689
 Component Sizing Information, Coil:Cooling:Water, 1 ZONE VAV 6 CLG COIL, Design Size Design Water Flow Rate [m3/s], 3.00481E-002
 Component Sizing Information, Coil:Cooling:Water, 1 ZONE VAV 6 CLG COIL, Design Size Design Air Flow Rate [m3/s], 29.39889
Water Cooling Coil Capacity Information,Coil:Cooling:Water,1 ZONE VAV 6 CLG COIL,855332.46,561840.06,293492.40,0.66,110898.31,1124.79
 Component Sizing Information, Coil:Heating:Water, 1 ZONE VAV 6 MAIN HTG COIL, Design Size Rated Capacity [W], 302523.26144
 Component Sizing Information, Coil:Heating:Water, 1 ZONE VAV 6 MAIN HTG COIL, Design Size Maximum Water Flow Rate [m3/s], 6.61704E-003
 Component Sizing Information, Coil:Heating:Water, 1 ZONE VAV 6 MAIN HTG COIL, Design Size U-Factor Times Area Value [W/K], 3974.67207
Water Heating Coil Capacity Information,Coil:Heating:Water,1 ZONE VAV 6 MAIN HTG COIL,201969.34
 Component Sizing Information, Fan:VariableVolume, 1 ZONE VAV 6 FAN, Design Size Maximum Flow Rate [m3/s], 29.39889
 Component Sizing Information, Controller:WaterCoil, 1 ZONE VAV 6 CLG COIL CONTROLLER, Maximum Actuated Flow [m3/s], 3.00481E-002
 Component Sizing Information, Controller:WaterCoil, 1 ZONE VAV 6 CLG COIL CONTROLLER, Controller Convergence Tolerance, 1.58476E-005
 Component Sizing Information, Controller:WaterCoil, 1 ZONE VAV 6 MAIN HTG COIL CONTROLLER, Maximum Actuated Flow [m3/s], 6.61704E-003
 Component Sizing Information, Controller:OutdoorAir, 1 ZONE VAV 7 OA CONTROLLER, Maximum Outdoor Air Flow Rate [m3/s], 13.21089
 Component Sizing Information, Controller:OutdoorAir, 1 ZONE VAV 7 OA CONTROLLER, Minimum Outdoor Air Flow Rate [m3/s], 1.80745
 Component Sizing Information, Coil:Cooling:Water, 1 ZONE VAV 7 CLG COIL, Design Size Design Inlet Air Temperature [C], 23.31201
 Component Sizing Information, Coil:Cooling:Water, 1 ZONE VAV 7 CLG COIL, Design Size Design Inlet Water Temperature [C], 6.66667
 Component Sizing Information, Coil:Cooling:Water, 1 ZONE VAV 7 CLG COIL, Design Size Design Outlet Air Temperature [C], 10.86239
 Component Sizing Information, Coil:Cooling:Water, 1 ZONE VAV 7 CLG COIL, Design Size Design Inlet Air Humidity Ratio, 9.53971E-003
 Component Sizing Information, Coil:Cooling:Water, 1 ZONE VAV 7 CLG COIL, Design Size Design Outlet Air Humidity Ratio, 8.50000E-003
 Component Sizing Information, Coil:Cooling:Water, 1 ZONE VAV 7 CLG COIL, Design Size Design Coil Load [W], 238086.63766
 Component Sizing Information, Coil:Cooling:Water, 1 ZONE VAV 7 CLG COIL, Design Size Design Water Flow Rate [m3/s], 1.01087E-002
 Component Sizing Information, Coil:Cooling:Water, 1 ZONE VAV 7 CLG COIL, Design Size Design Air Flow Rate [m3/s], 13.21089
Water Cooling Coil Capacity Information,Coil:Cooling:Water,1 ZONE VAV 7 CLG COIL,350365.42,238045.83,112319.59,0.68,48779.32,494.75
 Component Sizing Information, Coil:Heating:Water, 1 ZONE VAV 7 MAIN HTG COIL, Design Size Rated Capacity [W], 47974.13673
 Component Sizing Information, Coil:Heating:Water, 1 ZONE VAV 7 MAIN HTG COIL, Design Size Maximum Water Flow Rate [m3/s], 1.04933E-003
 Component Sizing Information, Coil:Heating:Water, 1 ZONE VAV 7 MAIN HTG COIL, Design Size U-Factor Times Area Value [W/K], 724.87941
Water Heating Coil Capacity Information,Coil:Heating:Water,1 ZONE VAV 7 MAIN HTG COIL,39540.25
 Component Sizing Information, Fan:VariableVolume, 1 ZONE VAV 7 FAN, Design Size Maximum Flow Rate [m3/s], 13.21089
 Component Sizing Information, Controller:WaterCoil, 1 ZONE VAV 7 CLG COIL CONTROLLER, Maximum Actuated Flow [m3/s], 1.01087E-002
 Component Sizing Information, Controller:WaterCoil, 1 ZONE VAV 7 CLG COIL CONTROLLER, Controller Convergence Tolerance, 4.71070E-005
 Component Sizing Information, Controller:WaterCoil, 1 ZONE VAV 7 MAIN HTG COIL CONTROLLER, Maximum Actuated Flow [m3/s], 1.04933E-003
 Component Sizing Information, Controller:OutdoorAir, 1 ZONE VAV 8 OA CONTROLLER, Maximum Outdoor Air Flow Rate [m3/s], 18.39753
 Component Sizing Information, Controller:OutdoorAir, 1 ZONE VAV 8 OA CONTROLLER, Minimum Outdoor Air Flow Rate [m3/s], 5.34869
 Component Sizing Information, Coil:Cooling:Water, 1 ZONE VAV 8 CLG COIL, Design Size Design Inlet Air Temperature [C], 24.56562
 Component Sizing Information, Coil:Cooling:Water, 1 ZONE VAV 8 CLG COIL, Design Size Design Inlet Water Temperature [C], 6.66667
 Component Sizing Information, Coil:Cooling:Water, 1 ZONE VAV 8 CLG COIL, Design Size Design Outlet Air Temperature [C], 10.86559
 Component Sizing Information, Coil:Cooling:Water, 1 ZONE VAV 8 CLG COIL, Design Size Design Inlet Air Humidity Ratio, 1.04619E-002
 Component Sizing Information, Coil:Cooling:Water, 1 ZONE VAV 8 CLG COIL, Design Size Design Outlet Air Humidity Ratio, 8.50000E-003
 Component Sizing Information, Coil:Cooling:Water, 1 ZONE VAV 8 CLG COIL, Design Size Design Coil Load [W], 409893.17934
 Component Sizing Information, Coil:Cooling:Water, 1 ZONE VAV 8 CLG COIL, Design Size Design Water Flow Rate [m3/s], 1.74033E-002
 Component Sizing Information, Coil:Cooling:Water, 1 ZONE VAV 8 CLG COIL, Design Size Design Air Flow Rate [m3/s], 18.39753
Water Cooling Coil Capacity Information,Coil:Cooling:Water,1 ZONE VAV 8 CLG COIL,523206.84,346397.28,176809.57,0.66,68845.91,698.27
 Component Sizing Information, Coil:Heating:Water, 1 ZONE VAV 8 MAIN HTG COIL, Design Size Rated Capacity [W], 182355.42401
 Component Sizing Information, Coil:Heating:Water, 1 ZONE VAV 8 MAIN HTG COIL, Design Size Maximum Water Flow Rate [m3/s], 3.98863E-003
 Component Sizing Information, Coil:Heating:Water, 1 ZONE VAV 8 MAIN HTG COIL, Design Size U-Factor Times Area Value [W/K], 2412.50636
Water Heating Coil Capacity Information,Coil:Heating:Water,1 ZONE VAV 8 MAIN HTG COIL,123070.58
 Component Sizing Information, Fan:VariableVolume, 1 ZONE VAV 8 FAN, Design Size Maximum Flow Rate [m3/s], 18.39753
 Component Sizing Information, Controller:WaterCoil, 1 ZONE VAV 8 CLG COIL CONTROLLER, Maximum Actuated Flow [m3/s], 1.74033E-002
 Component Sizing Information, Controller:WaterCoil, 1 ZONE VAV 8 CLG COIL CONTROLLER, Controller Convergence Tolerance, 2.73621E-005
 Component Sizing Information, Controller:WaterCoil, 1 ZONE VAV 8 MAIN HTG COIL CONTROLLER, Maximum Actuated Flow [m3/s], 3.98863E-003
 Component Sizing Information, Controller:OutdoorAir, 1 ZONE VAV 9 OA CONTROLLER, Maximum Outdoor Air Flow Rate [m3/s], 9.30002
 Component Sizing Information, Controller:OutdoorAir, 1 ZONE VAV 9 OA CONTROLLER, Minimum Outdoor Air Flow Rate [m3/s], 0.95094
 Component Sizing Information, Coil:Cooling:Water, 1 ZONE VAV 9 CLG COIL, Design Size Design Inlet Air Temperature [C], 23.02934
 Component Sizing Information, Coil:Cooling:Water, 1 ZONE VAV 9 CLG COIL, Design Size Design Inlet Water Temperature [C], 6.66667
 Component Sizing Information, Coil:Cooling:Water, 1 ZONE VAV 9 CLG COIL, Design Size Design Outlet Air Temperature [C], 10.86161
 Component Sizing Information, Coil:Cooling:Water, 1 ZONE VAV 9 CLG COIL, Design Size Design Inlet Air Humidity Ratio, 9.31769E-003
 Component Sizing Information, Coil:Cooling:Water, 1 ZONE VAV 9 CLG COIL, Design Size Design Outlet Air Humidity Ratio, 8.50000E-003
 Component Sizing Information, Coil:Cooling:Water, 1 ZONE VAV 9 CLG COIL, Design Size Design Coil Load [W], 158291.95928
 Component Sizing Information, Coil:Cooling:Water, 1 ZONE VAV 9 CLG COIL, Design Size Design Water Flow Rate [m3/s], 6.72077E-003
 Component Sizing Information, Coil:Cooling:Water, 1 ZONE VAV 9 CLG COIL, Design Size Design Air Flow Rate [m3/s], 9.30002
Water Cooling Coil Capacity Information,Coil:Cooling:Water,1 ZONE VAV 9 CLG COIL,245793.86,167510.57,78283.29,0.68,36605.20,371.27
 Component Sizing Information, Coil:Heating:Water, 1 ZONE VAV 9 MAIN HTG COIL, Design Size Rated Capacity [W], 18812.30328
 Component Sizing Information, Coil:Heating:Water, 1 ZONE VAV 9 MAIN HTG COIL, Design Size Maximum Water Flow Rate [m3/s], 4.11479E-004
 Component Sizing Information, Coil:Heating:Water, 1 ZONE VAV 9 MAIN HTG COIL, Design Size U-Factor Times Area Value [W/K], 288.57246
Water Heating Coil Capacity Information,Coil:Heating:Water,1 ZONE VAV 9 MAIN HTG COIL,16442.40
 Component Sizing Information, Fan:VariableVolume, 1 ZONE VAV 9 FAN, Design Size Maximum Flow Rate [m3/s], 9.30002
 Component Sizing Information, Controller:WaterCoil, 1 ZONE VAV 9 CLG COIL CONTROLLER, Maximum Actuated Flow [m3/s], 6.72077E-003
 Component Sizing Information, Controller:WaterCoil, 1 ZONE VAV 9 CLG COIL CONTROLLER, Controller Convergence Tolerance, 7.08535E-005
 Component Sizing Information, Controller:WaterCoil, 1 ZONE VAV 9 MAIN HTG COIL CONTROLLER, Maximum Actuated Flow [m3/s], 4.11479E-004
Water Heater Information,WaterHeater:Mixed,555GAL NATURALGAS WATER HEATER - 555KBTU/HR 0.803 THERM EFF,2.1015,162706.9,0.331,0.3991
 Component Sizing Information, Pump:VariableSpeed, CHILLED WATER LOOP SECONDARY PUMP, Design Flow Rate [m3/s], 0.17245
 Component Sizing Information, Pump:VariableSpeed, CHILLED WATER LOOP SECONDARY PUMP, Design Power Consumption [W], 31976.68961
 Component Sizing Information, PlantLoop, CHILLED WATER LOOP, Maximum Loop Flow Rate [m3/s], 0.17245
 Component Sizing Information, PlantLoop, CHILLED WATER LOOP, Plant Loop Volume [m3], 20.69399
 Component Sizing Information, Pump:ConstantSpeed, CHILLED WATER LOOP PRIMARY PUMP, Design Flow Rate [m3/s], 0.17245
 Component Sizing Information, Pump:ConstantSpeed, CHILLED WATER LOOP PRIMARY PUMP, Design Power Consumption [W], 10893.15800
 Component Sizing Information, Chiller:Electric:EIR, 90.1-2004 WATERCOOLED  ROTARY SCREW CHILLER 0 1110TONS 0.6KW/TON, Design Size Reference Chilled Water Flow Rate [m3/s], 0.17245
 Component Sizing Information, Chiller:Electric:EIR, 90.1-2004 WATERCOOLED  ROTARY SCREW CHILLER 0 1110TONS 0.6KW/TON, Design Size Reference Capacity [W], 4061651.54032
 Component Sizing Information, Chiller:Electric:EIR, 90.1-2004 WATERCOOLED  ROTARY SCREW CHILLER 0 1110TONS 0.6KW/TON, Design Size Reference Condenser Fluid Flow Rate [m3/s], 0.20670
! <Chiller Standard Rating Information>, Component Type, Component Name, IPLV in SI Units {W/W}, IPLV in IP Units {Btu/W-h}
 Chiller Standard Rating Information, Chiller:Electric:EIR, 90.1-2004 WATERCOOLED  ROTARY SCREW CHILLER 0 1110TONS 0.6KW/TON, 5.13, 17.50
 Component Sizing Information, PlantLoop, CONDENSER WATER LOOP, Maximum Loop Flow Rate [m3/s], 0.20670
 Component Sizing Information, PlantLoop, CONDENSER WATER LOOP, Plant Loop Volume [m3], 24.80434
 Component Sizing Information, Pump:ConstantSpeed, CONDENSER WATER LOOP CONSTANT PUMP, Design Flow Rate [m3/s], 0.20670
 Component Sizing Information, Pump:ConstantSpeed, CONDENSER WATER LOOP CONSTANT PUMP, Design Power Consumption [W], 42059.87050
 Component Sizing Information, CoolingTower:TwoSpeed, PROPELLER OR AXIAL TWOSPEED FAN OPEN COOLING TOWER 38.2 GPM/HP, Design Water Flow Rate [m3/s], 0.20670
 Component Sizing Information, CoolingTower:TwoSpeed, PROPELLER OR AXIAL TWOSPEED FAN OPEN COOLING TOWER 38.2 GPM/HP, Air Flow Rate at High Fan Speed [m3/s], 158.77315
 Component Sizing Information, CoolingTower:TwoSpeed, PROPELLER OR AXIAL TWOSPEED FAN OPEN COOLING TOWER 38.2 GPM/HP, U-Factor Times Area Value at High Fan Speed [W/C], 259316.36581
 Component Sizing Information, CoolingTower:TwoSpeed, PROPELLER OR AXIAL TWOSPEED FAN OPEN COOLING TOWER 38.2 GPM/HP, Low Fan Speed Air Flow Rate [m3/s], 79.38658
 Component Sizing Information, CoolingTower:TwoSpeed, PROPELLER OR AXIAL TWOSPEED FAN OPEN COOLING TOWER 38.2 GPM/HP, U-Factor Times Area Value at Low Fan Speed [W/K], 155589.81948
 Component Sizing Information, PlantLoop, HOT WATER LOOP, Maximum Loop Flow Rate [m3/s], 8.10059E-002
 Component Sizing Information, PlantLoop, HOT WATER LOOP, Plant Loop Volume [m3], 9.72071
 Component Sizing Information, Pump:VariableSpeed, HOT WATER LOOP PUMP, Design Flow Rate [m3/s], 8.10059E-002
 Component Sizing Information, Pump:VariableSpeed, HOT WATER LOOP PUMP, Design Power Consumption [W], 20157.51732
 Component Sizing Information, Boiler:HotWater, BOILER 12808KBTU/HR 0.75 THERMAL EFF, Design Size Nominal Capacity [W], 3703493.18389
 Component Sizing Information, Boiler:HotWater, BOILER 12808KBTU/HR 0.75 THERMAL EFF, Design Size Design Water Flow Rate [m3/s], 8.10059E-002
 Component Sizing Information, PlantLoop, OUTPATIENT SHARED SERVICE WATER LOOP, Maximum Loop Flow Rate [m3/s], 6.78017E-004
 Component Sizing Information, PlantLoop, OUTPATIENT SHARED SERVICE WATER LOOP, Plant Loop Volume [m3], 8.13620E-002
 Component Sizing Information, Pump:ConstantSpeed, OUTPATIENT SHARED SERVICE WATER LOOP CIRCULATOR PUMP, Design Flow Rate [m3/s], 6.78017E-004
 Component Sizing Information, Pump:ConstantSpeed, OUTPATIENT SHARED SERVICE WATER LOOP CIRCULATOR PUMP, Design Power Consumption [W], 31.49399
 Component Sizing Information, WaterHeater:Mixed, 555GAL NATURALGAS WATER HEATER - 555KBTU/HR 0.803 THERM EFF, Use Side Design Flow Rate [m3/s], 6.78017E-004
! <Environment>,Environment Name,Environment Type, Start Date, End Date, Start DayOfWeek, Duration {#days}, Source:Start DayOfWeek,  Use Daylight Saving, Use Holidays, Apply Weekend Holiday Rule,  Use Rain Values, Use Snow Values
! <Environment:Special Days>, Special Day Name, Special Day Type, Source, Start Date, Duration {#days}
! <Environment:Daylight Saving>, Daylight Saving Indicator, Source, Start Date, End Date
! <Environment:WarmupDays>, NumberofWarmupDays
Environment,RUN PERIOD 1,WeatherFileRunPeriod,01/01/2019,12/31/2019,Tuesday,365,Use RunPeriod Specified Day,No,No,No,Yes,Yes
Environment:Daylight Saving,Yes,InputFile,03/10,11/03
Environment:WarmupDays,  6
! <Tabular Report>,Style,Unit Conversion
Tabular Report,HTML,None
! <Warmup Convergence Information>,Zone Name,Environment Type/Name,Average Warmup Temperature Difference {deltaC},Std Dev Warmup Temperature Difference {deltaC},Max Temperature Pass/Fail Convergence,Min Temperature Pass/Fail Convergence,Average Warmup Load Difference {W},Std Dev Warmup Load Difference {W},Heating Load Pass/Fail Convergence,Cooling Load Pass/Fail Convergence
 Warmup Convergence Information,BUILDING STORY 1 THERMALZONE,RunPeriod: RUN PERIOD 1,0.3777446064,0.4683656422,Pass,Pass,0.1211372846,0.2444022338,Pass,Pass
 Warmup Convergence Information,BUILDING STORY 10 THERMALZONE,RunPeriod: RUN PERIOD 1,1.4328491433,0.6781824981,Pass,Pass,0.6124975022,1.1966204968,Pass,Pass
 Warmup Convergence Information,BUILDING STORY 2 THERMALZONE,RunPeriod: RUN PERIOD 1,1.2920726917,1.6573213369,Pass,Pass,0.2327799950,0.4326670110,Pass,Pass
 Warmup Convergence Information,BUILDING STORY 3 THERMALZONE,RunPeriod: RUN PERIOD 1,0.9330271711,1.2815008280,Pass,Pass,0.4194899829,0.4461945290,Pass,Pass
 Warmup Convergence Information,BUILDING STORY 4 THERMALZONE,RunPeriod: RUN PERIOD 1,0.5223852835,0.7742538975,Pass,Pass,0.6235035875,2.0215253883,Pass,Pass
 Warmup Convergence Information,BUILDING STORY 5 THERMALZONE,RunPeriod: RUN PERIOD 1,0.3114542695,0.3929501933,Pass,Pass,7.8304951774E-002,0.1853423096,Pass,Pass
 Warmup Convergence Information,BUILDING STORY 6 THERMALZONE,RunPeriod: RUN PERIOD 1,0.6440181311,0.9566112723,Pass,Pass,9.5681875947,40.6430213826,Pass,Pass
 Warmup Convergence Information,BUILDING STORY 7 THERMALZONE,RunPeriod: RUN PERIOD 1,0.3072011214,0.3585157236,Pass,Pass,6.9631457246E-002,0.1958276953,Pass,Pass
 Warmup Convergence Information,BUILDING STORY 8 THERMALZONE,RunPeriod: RUN PERIOD 1,0.5491932976,0.7467757189,Pass,Pass,8.7401950626E-002,0.1538442253,Pass,Pass
 Warmup Convergence Information,BUILDING STORY 9 THERMALZONE,RunPeriod: RUN PERIOD 1,0.5932546821,0.4789406773,Pass,Pass,0.1811388122,0.4283454994,Pass,Pass
! <Program Control Information:Threads/Parallel Sims>, Threading Supported,Maximum Number of Threads, Env Set Threads (OMP_NUM_THREADS), EP Env Set Threads (EP_OMP_NUM_THREADS), IDF Set Threads, Number of Threads Used (Interior Radiant Exchange), Number Nominal Surfaces, Number Parallel Sims
Program Control:Threads/Parallel Sims, No,1, N/A, N/A, N/A, N/A, N/A, N/A
End of Data
